
  SciTegic03012415362D

 66 78  0  0  1  0            999 V2000
   -1.8413   -4.5811    0.0000 C   0  0
   -0.3667   -4.3062    0.0000 C   0  0  2  0  0  0
    0.7315   -5.3280    0.0000 C   0  0  2  0  0  0
    2.0426   -4.5993    0.0000 O   0  0
    1.7758   -3.1329    0.0000 C   0  0  1  0  0  0
    2.3947   -1.7666    0.0000 C   0  0
    1.2990   -0.7500    0.0000 C   0  0
    1.2990    0.7500    0.0000 C   0  0  2  0  0  0
    2.5981    1.5000    0.0000 C   0  0
    2.5981    3.0000    0.0000 C   0  0
    1.2990    3.7500    0.0000 C   0  0  1  0  0  0
    1.2990    5.2500    0.0000 C   0  0
    0.0000    6.0000    0.0000 C   0  0
   -0.0001    7.5000    0.0000 N   0  0
   -1.2991    8.2500    0.0000 C   0  0
   -2.5981    7.5000    0.0000 C   0  0
   -2.5981    6.0000    0.0000 N   0  0
   -1.2991    5.2500    0.0000 C   0  0
   -1.2991    3.7500    0.0000 C   0  0
    0.0000    3.0000    0.0000 C   0  0  1  0  0  0
   -1.2991    2.2500    0.0000 C   0  0
    0.0000    1.5000    0.0000 C   0  0  1  0  0  0
   -1.2990    0.7500    0.0000 C   0  0
   -1.2990   -0.7500    0.0000 C   0  0  1  0  0  0
   -2.5981   -1.5000    0.0000 O   0  0
    0.0000   -1.5000    0.0000 C   0  0  1  0  0  0
   -0.8141   -2.0807    0.0000 C   0  0
    0.2851   -2.9666    0.0000 C   0  0  1  0  0  0
   -0.7064   -2.8366    0.0000 O   0  0
   -3.8972    8.2500    0.0000 C   0  0
   -3.8972    9.7500    0.0000 C   0  0  2  0  0  0
   -5.1963   10.4999    0.0000 C   0  0
   -5.1963   11.9999    0.0000 C   0  0
   -3.8972   12.7500    0.0000 C   0  0  1  0  0  0
   -3.8973   14.2500    0.0000 C   0  0
   -4.5609   15.8493    0.0000 C   0  0
   -3.5286   16.9376    0.0000 C   0  0
   -1.8940   16.3783    0.0000 C   0  0  2  0  0  0
   -2.6440   17.6773    0.0000 C   0  0  2  0  0  0
   -1.8940   18.9764    0.0000 C   0  0
   -4.1440   17.6773    0.0000 C   0  0  1  0  0  0
   -4.8940   16.3782    0.0000 O   0  0
   -4.1440   15.0792    0.0000 C   0  0
   -2.5982   15.0000    0.0000 C   0  0  2  0  0  0
   -1.2992   14.2500    0.0000 C   0  0
   -0.0001   15.0000    0.0000 O   0  0
   -1.2992   12.7500    0.0000 C   0  0
   -2.5982   12.0000    0.0000 C   0  0  2  0  0  0
   -2.5982   10.5000    0.0000 C   0  0  2  0  0  0
   -1.2992   11.2500    0.0000 C   0  0
   -1.2991    9.7500    0.0000 C   0  0
   -5.3575   18.6285    0.0000 O   0  0
   -4.8940   20.0551    0.0000 C   0  0
   -6.3833   19.8760    0.0000 C   0  0
   -4.2637   21.4162    0.0000 C   0  0
   -3.3940   20.0551    0.0000 C   0  0
   -2.9305   18.6285    0.0000 C   0  0  1  0  0  0
   -1.4957   18.1911    0.0000 O   0  0
    1.0928   -6.8249    0.0000 O   0  0
   -0.1571   -7.6541    0.0000 C   0  0  2  0  0  0
   -1.4977   -8.3271    0.0000 C   0  0
    1.1109   -8.4318    0.0000 C   0  0
    1.0957   -9.9317    0.0000 O   0  0
   -1.3321   -6.7217    0.0000 C   0  0
   -0.8083   -5.3161    0.0000 C   0  0  1  0  0  0
   -1.6592   -4.0808    0.0000 O   0  0
  2  1  1  1
  2  3  1  0
  3  4  1  1
  5  4  1  6
  5  6  1  0
  6  7  2  0
  7  8  1  0
  8  9  1  1
  9 10  1  0
 11 10  1  6
 11 12  1  0
 12 13  1  0
 13 14  2  0
 14 15  1  0
 15 16  2  0
 16 17  1  0
 17 18  2  0
 18 13  1  0
 18 19  1  0
 19 20  1  0
 20 11  1  0
 20 21  1  6
 20 22  1  0
 22  8  1  0
 22 23  1  6
 23 24  1  0
 24 25  1  6
 24 26  1  0
 26  7  1  0
 26 27  1  6
 26 28  1  0
 28  5  1  0
 28  2  1  0
 28 29  1  1
 16 30  1  0
 31 30  1  6
 31 32  1  0
 32 33  1  0
 34 33  1  1
 34 35  1  0
 35 36  2  0
 36 37  1  0
 38 37  1  1
 38 39  1  0
 39 40  1  1
 39 41  1  0
 41 42  1  6
 42 43  1  0
 44 43  1  6
 44 35  1  0
 44 38  1  0
 44 45  1  0
 45 46  2  0
 45 47  1  0
 48 47  1  6
 48 34  1  0
 48 49  1  0
 49 31  1  0
 49 50  1  6
 49 51  1  0
 51 15  1  0
 41 52  1  0
 52 53  1  0
 53 54  1  0
 53 55  1  0
 53 56  1  0
 56 57  1  0
 57 41  1  0
 57 58  1  1
  3 59  1  0
 59 60  1  0
 60 61  1  1
 60 62  1  0
 62 63  1  0
 60 64  1  0
 64 65  1  0
 65  3  1  0
 65 66  1  1
M  END
> <Smiles>
C[C@@H]1[C@]2(O[C@H]3C=C4[C@@H]5CC[C@H]6Cc7nc8c(nc7C[C@]6(C)[C@H]5C[C@@H](O)[C@]4(C)[C@]31O)C[C@@H]1CC[C@H]3C4=CC[C@@H]5[C@H](C)[C@@]6(OC[C@]45C(=O)C[C@@H]3[C@@]1(C)C8)OC(C)(C)C[C@H]6O)O[C@](C)(CO)C[C
@H]2O

> <ID>
CHEMBL269081

> <standard_value>
0.08128

> <IC50_uM>
8.13E-05

> <Activity>
Yes

> <pIC50>
10.09001631

> <BCI>
1

$$$$

  SciTegic03012415362D

 67 79  0  0  1  0            999 V2000
   -1.8413   -4.5811    0.0000 C   0  0
   -0.3667   -4.3062    0.0000 C   0  0  2  0  0  0
    0.7315   -5.3280    0.0000 C   0  0  2  0  0  0
    2.0426   -4.5993    0.0000 O   0  0
    1.7758   -3.1329    0.0000 C   0  0  1  0  0  0
    2.3947   -1.7666    0.0000 C   0  0
    1.2990   -0.7500    0.0000 C   0  0
    1.2990    0.7500    0.0000 C   0  0  2  0  0  0
    2.5981    1.5000    0.0000 C   0  0
    2.5981    3.0000    0.0000 C   0  0
    1.2990    3.7500    0.0000 C   0  0  1  0  0  0
    1.2990    5.2500    0.0000 C   0  0
    0.0000    6.0000    0.0000 C   0  0
   -0.0001    7.5000    0.0000 N   0  0
   -1.2991    8.2500    0.0000 C   0  0
   -2.5981    7.5000    0.0000 C   0  0
   -2.5981    6.0000    0.0000 N   0  0
   -1.2991    5.2500    0.0000 C   0  0
   -1.2991    3.7500    0.0000 C   0  0
    0.0000    3.0000    0.0000 C   0  0  1  0  0  0
   -1.2991    2.2500    0.0000 C   0  0
    0.0000    1.5000    0.0000 C   0  0  1  0  0  0
   -1.2990    0.7500    0.0000 C   0  0
   -1.2990   -0.7500    0.0000 C   0  0  1  0  0  0
   -2.5981   -1.5000    0.0000 O   0  0
    0.0000   -1.5000    0.0000 C   0  0  1  0  0  0
   -0.8141   -2.0807    0.0000 C   0  0
    0.2851   -2.9666    0.0000 C   0  0  1  0  0  0
   -0.7064   -2.8366    0.0000 O   0  0
   -3.8972    8.2500    0.0000 C   0  0
   -3.8972    9.7500    0.0000 C   0  0  2  0  0  0
   -5.1963   10.4999    0.0000 C   0  0
   -5.1963   11.9999    0.0000 C   0  0
   -3.8972   12.7500    0.0000 C   0  0  1  0  0  0
   -3.8973   14.2500    0.0000 C   0  0
   -4.5609   15.8493    0.0000 C   0  0
   -3.5286   16.9376    0.0000 C   0  0
   -1.8940   16.3783    0.0000 C   0  0  2  0  0  0
   -2.6440   17.6773    0.0000 C   0  0  2  0  0  0
   -1.8940   18.9764    0.0000 C   0  0
   -4.1440   17.6773    0.0000 C   0  0  1  0  0  0
   -4.8940   16.3782    0.0000 O   0  0
   -4.1440   15.0792    0.0000 C   0  0
   -2.5982   15.0000    0.0000 C   0  0  2  0  0  0
   -1.2992   14.2500    0.0000 C   0  0
   -0.0001   15.0000    0.0000 O   0  0
   -1.2992   12.7500    0.0000 C   0  0
   -2.5982   12.0000    0.0000 C   0  0  1  0  0  0
   -1.7322   11.5000    0.0000 O   0  0
   -2.5982   10.5000    0.0000 C   0  0  2  0  0  0
   -3.4642   11.0000    0.0000 C   0  0
   -1.2991    9.7500    0.0000 C   0  0
   -5.3575   18.6285    0.0000 O   0  0
   -4.8940   20.0551    0.0000 C   0  0
   -6.3833   19.8760    0.0000 C   0  0
   -4.2637   21.4162    0.0000 C   0  0
   -3.3940   20.0551    0.0000 C   0  0
   -2.9305   18.6285    0.0000 C   0  0  1  0  0  0
   -1.4957   18.1911    0.0000 O   0  0
    1.0928   -6.8249    0.0000 O   0  0
   -0.1571   -7.6541    0.0000 C   0  0  2  0  0  0
   -1.4977   -8.3271    0.0000 C   0  0
    1.1109   -8.4318    0.0000 C   0  0
    1.0957   -9.9317    0.0000 O   0  0
   -1.3321   -6.7217    0.0000 C   0  0
   -0.8083   -5.3161    0.0000 C   0  0  1  0  0  0
   -1.6592   -4.0808    0.0000 O   0  0
  2  1  1  1
  2  3  1  0
  3  4  1  1
  5  4  1  6
  5  6  1  0
  6  7  2  0
  7  8  1  0
  8  9  1  1
  9 10  1  0
 11 10  1  6
 11 12  1  0
 12 13  1  0
 13 14  2  0
 14 15  1  0
 15 16  2  0
 16 17  1  0
 17 18  2  0
 18 13  1  0
 18 19  1  0
 19 20  1  0
 20 11  1  0
 20 21  1  6
 20 22  1  0
 22  8  1  0
 22 23  1  6
 23 24  1  0
 24 25  1  6
 24 26  1  0
 26  7  1  0
 26 27  1  6
 26 28  1  0
 28  5  1  0
 28  2  1  0
 28 29  1  1
 16 30  1  0
 31 30  1  6
 31 32  1  0
 32 33  1  0
 34 33  1  1
 34 35  1  0
 35 36  2  0
 36 37  1  0
 38 37  1  1
 38 39  1  0
 39 40  1  1
 39 41  1  0
 41 42  1  6
 42 43  1  0
 44 43  1  6
 44 35  1  0
 44 38  1  0
 44 45  1  0
 45 46  2  0
 45 47  1  0
 47 48  1  0
 48 34  1  0
 48 49  1  1
 48 50  1  0
 50 31  1  0
 50 51  1  6
 50 52  1  0
 52 15  1  0
 41 53  1  0
 53 54  1  0
 54 55  1  0
 54 56  1  0
 54 57  1  0
 57 58  1  0
 58 41  1  0
 58 59  1  1
  3 60  1  0
 60 61  1  0
 61 62  1  1
 61 63  1  0
 63 64  1  0
 61 65  1  0
 65 66  1  0
 66  3  1  0
 66 67  1  1
M  END
> <Smiles>
C[C@@H]1[C@]2(O[C@H]3C=C4[C@@H]5CC[C@H]6Cc7nc8c(nc7C[C@]6(C)[C@H]5C[C@@H](O)[C@]4(C)[C@]31O)C[C@@H]1CC[C@H]3C4=CC[C@@H]5[C@H](C)[C@@]6(OC[C@]45C(=O)C[C@]3(O)[C@@]1(C)C8)OC(C)(C)C[C@H]6O)O[C@](C)(CO)C[
C@H]2O

> <ID>
CHEMBL258442

> <standard_value>
0.1

> <IC50_uM>
0.0001

> <Activity>
Yes

> <pIC50>
10

> <BCI>
1

$$$$

  SciTegic03012415362D

 62 68  0  0  1  0            999 V2000
    6.9661  -12.2473    0.0000 C   0  0
    6.2279  -10.9415    0.0000 O   0  0
    6.9891   -9.6481    0.0000 C   0  0
    8.4891   -9.6576    0.0000 C   0  0
    9.2473   -8.3633    0.0000 C   0  0
    8.5056   -7.0595    0.0000 C   0  0
    9.2616   -5.7629    0.0000 C   0  0
   10.7615   -5.7698    0.0000 O   0  0
    8.5175   -4.4595    0.0000 O   0  0
    9.2735   -3.1630    0.0000 C   0  0  1  0  0  0
    8.5317   -1.8592    0.0000 C   0  0  2  0  0  0
    7.0309   -1.8526    0.0000 O   0  0
    6.2853   -0.5501    0.0000 C   0  0  2  0  0  0
    4.7853   -0.5414    0.0000 C   0  0  1  0  0  0
    4.0301   -1.8384    0.0000 O   0  0
    4.7749   -3.1414    0.0000 C   0  0
    6.2749   -3.1474    0.0000 C   0  0
    4.0202   -4.4377    0.0000 O   0  0
    4.0428    0.7619    0.0000 C   0  0  2  0  0  0
    2.5420    0.7676    0.0000 O   0  0
    1.7872   -0.5267    0.0000 C   0  0  1  0  0  0
    2.3941   -1.8984    0.0000 C   0  0
    1.2897   -2.9054    0.0000 C   0  0  1  0  0  0
    1.2766   -4.4053    0.0000 C   0  0  2  0  0  0
    2.5691   -5.1666    0.0000 C   0  0
    2.5560   -6.6666    0.0000 C   0  0
    1.2505   -7.4052    0.0000 C   0  0
    1.2375   -8.9052    0.0000 C   0  0
   -0.0680   -9.6439    0.0000 C   0  0  1  0  0  0
   -0.0811  -11.1438    0.0000 O   0  0
   -1.3605   -8.8826    0.0000 C   0  0
   -1.3474   -7.3826    0.0000 C   0  0
   -0.0419   -6.6440    0.0000 C   0  0  1  0  0  0
   -1.3344   -5.8827    0.0000 C   0  0
   -0.0289   -5.1440    0.0000 C   0  0  1  0  0  0
   -1.3213   -4.3828    0.0000 C   0  0
   -1.3083   -2.8828    0.0000 C   0  0
   -0.0028   -2.1441    0.0000 C   0  0  1  0  0  0
   -0.8118   -1.5564    0.0000 C   0  0
    0.2950   -0.6800    0.0000 C   0  0  2  0  0  0
   -0.6791   -0.9062    0.0000 O   0  0
    0.2614    0.8074    0.0000 C   0  0  2  0  0  0
    1.5553    1.5664    0.0000 C   0  0
   -1.0432    1.5493    0.0000 C   0  0
   -2.3371    0.7903    0.0000 O   0  0
   -1.0541    3.0500    0.0000 C   0  0
   -2.3588    3.7919    0.0000 C   0  0
   -2.3696    5.2927    0.0000 C   0  0
   -3.2389    5.7869    0.0000 C   0  0
   -1.0758    6.0516    0.0000 C   0  0
    4.8003    2.0566    0.0000 O   0  0
    6.3003    2.0479    0.0000 C   0  0
    7.0428    0.7446    0.0000 C   0  0  2  0  0  0
    8.0428    0.7388    0.0000 O   0  0
    9.2901   -0.5649    0.0000 O   0  0
   10.7901   -0.5745    0.0000 C   0  0
   11.5318   -1.8783    0.0000 C   0  0  1  0  0  0
   13.0317   -1.8879    0.0000 O   0  0
   10.7735   -3.1725    0.0000 C   0  0  2  0  0  0
   11.5152   -4.4763    0.0000 O   0  0
    7.0056   -7.0501    0.0000 C   0  0
    6.2474   -8.3443    0.0000 C   0  0
  1  2  1  0
  2  3  1  0
  3  4  2  0
  4  5  1  0
  5  6  2  0
  6  7  1  0
  7  8  2  0
  7  9  1  0
 10  9  1  1
 10 11  1  0
 11 12  1  6
 13 12  1  6
 13 14  1  0
 14 15  1  1
 15 16  1  0
 16 17  1  0
 16 18  2  0
 14 19  1  0
 19 20  1  6
 21 20  1  1
 21 22  1  0
 23 22  1  1
 23 24  1  0
 24 25  1  6
 25 26  1  0
 26 27  2  0
 27 28  1  0
 28 29  1  0
 29 30  1  1
 29 31  1  0
 31 32  1  0
 32 33  1  0
 33 27  1  0
 33 34  1  1
 33 35  1  0
 35 24  1  0
 35 36  1  1
 36 37  1  0
 37 38  1  0
 38 23  1  0
 38 39  1  1
 38 40  1  0
 40 21  1  0
 40 41  1  6
 40 42  1  0
 42 43  1  1
 42 44  1  0
 44 45  2  0
 44 46  1  0
 46 47  1  0
 47 48  1  0
 48 49  1  0
 48 50  1  0
 19 51  1  0
 51 52  1  0
 52 53  1  0
 53 13  1  0
 53 54  1  6
 11 55  1  0
 55 56  1  0
 56 57  1  0
 57 58  1  1
 57 59  1  0
 59 10  1  0
 59 60  1  6
  6 61  1  0
 61 62  2  0
 62  3  1  0
M  END
> <Smiles>
COc1ccc(C(=O)O[C@H]2[C@H](O[C@@H]3[C@@H](OC(C)=O)[C@H](O[C@H]4C[C@H]5[C@@H]6CC=C7C[C@@H](O)CC[C@]7(C)[C@H]6CC[C@]5(C)[C@@]4(O)[C@H](C)C(=O)CCC(C)C)OC[C@@H]3O)OC[C@@H](O)[C@@H]2O)cc1

> <ID>
CHEMBL375269

> <standard_value>
0.1

> <IC50_uM>
0.0001

> <Activity>
Yes

> <pIC50>
10

> <BCI>
1

$$$$

  SciTegic03012415362D

 59 62  0  0  1  0            999 V2000
    0.3352   -1.1294    0.0000 C   0  0
    0.9985    0.2159    0.0000 C   0  0
    0.1655    1.4643    0.0000 C   0  0  2  0  0  0
   -1.2077    0.8605    0.0000 C   0  0
    0.3284    2.9534    0.0000 C   0  0  1  0  0  0
   -0.7505    3.9664    0.0000 C   0  0
   -0.3453    5.4106    0.0000 O   0  0
   -2.2111    3.6598    0.0000 N   0  0
   -0.7127    3.4786    0.0000 C   0  0
   -0.4168    2.0081    0.0000 C   0  0
   -1.7240    1.2723    0.0000 C   0  0
   -2.8416    2.2823    0.0000 C   0  0  1  0  0  0
   -4.2493    2.7453    0.0000 C   0  0
   -4.4368    4.2336    0.0000 O   0  0
   -5.5171    1.9356    0.0000 O   0  0
   -6.2983    0.6354    0.0000 C   0  0  2  0  0  0
   -7.4492    1.6128    0.0000 C   0  0
   -7.1808    3.0886    0.0000 C   0  0
   -8.8616    1.1077    0.0000 C   0  0
   -8.5929    2.5833    0.0000 C   0  0
   -6.5467   -0.8683    0.0000 C   0  0
   -6.2979   -2.3745    0.0000 C   0  0  1  0  0  0
   -7.7209   -2.8490    0.0000 C   0  0
   -5.5935   -3.7275    0.0000 C   0  0
   -4.4798   -4.7627    0.0000 C   0  0  2  0  0  0
   -5.2631   -6.0419    0.0000 O   0  0
   -3.0589   -5.2813    0.0000 C   0  0  2  0  0  0
   -3.2255   -6.7720    0.0000 C   0  0
   -1.5695   -5.0904    0.0000 C   0  0
   -0.7801   -3.8316    0.0000 N   0  0
    0.7025   -4.1015    0.0000 C   0  0  1  0  0  0
    2.0251   -3.4020    0.0000 C   0  0
    3.2135   -4.3332    0.0000 C   0  0
    2.9253   -5.8052    0.0000 C   0  0
    4.6579   -3.9210    0.0000 C   0  0
    5.6936   -5.0060    0.0000 O   0  0
    5.1337   -2.5066    0.0000 N   0  0
    4.2393   -1.3209    0.0000 C   0  0  1  0  0  0
    3.0777   -0.3746    0.0000 C   0  0
    1.6747   -0.9075    0.0000 C   0  0
    0.9040    0.3794    0.0000 C   0  0
   -0.5958    0.3555    0.0000 C   0  0
   -1.3250   -0.9553    0.0000 C   0  0
   -2.7443   -0.4675    0.0000 O   0  0
   -3.8765   -1.4515    0.0000 C   0  0
   -0.5544   -2.2423    0.0000 C   0  0
    0.9454   -2.2184    0.0000 C   0  0
    5.1125   -0.1079    0.0000 C   0  0
    6.5997   -0.3029    0.0000 O   0  0
    4.5846    1.2814    0.0000 N   0  0
    5.5620    2.4192    0.0000 C   0  0
    3.1301    1.5941    0.0000 C   0  0  1  0  0  0
    2.0227    0.5823    0.0000 C   0  0
    2.9499    3.0702    0.0000 C   0  0
    4.1707    3.9419    0.0000 O   0  0
    1.6152    3.7185    0.0000 N   0  0
    1.5521    5.2172    0.0000 C   0  0
    0.8280   -5.6164    0.0000 C   0  0
   -0.5461   -6.2180    0.0000 S   0  0
  1  2  1  0
  2  3  1  0
  3  4  1  6
  3  5  1  0
  5  6  1  1
  6  7  2  0
  6  8  1  0
  8  9  1  0
  9 10  1  0
 10 11  1  0
 12 11  1  1
 12  8  1  0
 12 13  1  0
 13 14  2  0
 13 15  1  0
 15 16  1  0
 16 17  1  1
 17 18  1  0
 17 19  1  0
 17 20  1  0
 16 21  1  0
 21 22  1  0
 22 23  1  6
 22 24  1  0
 24 25  1  0
 25 26  1  1
 25 27  1  0
 27 28  1  1
 27 29  1  0
 29 30  2  0
 31 30  1  1
 31 32  1  0
 32 33  2  0
 33 34  1  0
 33 35  1  0
 35 36  2  0
 35 37  1  0
 37 38  1  0
 38 39  1  1
 39 40  1  0
 40 41  2  0
 41 42  1  0
 42 43  2  0
 43 44  1  0
 44 45  1  0
 43 46  1  0
 46 47  2  0
 47 40  1  0
 38 48  1  0
 48 49  2  0
 48 50  1  0
 50 51  1  0
 50 52  1  0
 52 53  1  1
 52 54  1  0
 54 55  2  0
 54 56  1  0
 56  5  1  0
 56 57  1  0
 31 58  1  0
 58 59  1  0
 59 29  1  0
M  END
> <Smiles>
CC[C@H](C)[C@H]1C(=O)N2CCC[C@H]2C(=O)O[C@H](C(C)(C)C)C[C@@H](C)C[C@H](O)[C@H](C)C2=N[C@@H](/C=C(\C)C(=O)N[C@@H](Cc3ccc(OC)cc3)C(=O)N(C)[C@@H](C)C(=O)N1C)CS2

> <ID>
CHEMBL501696

> <standard_value>
0.503

> <IC50_uM>
0.000503

> <Activity>
Yes

> <pIC50>
9.298432015

> <BCI>
1

$$$$

  SciTegic03012415362D

 33 34  0  0  1  0            999 V2000
    3.4866    4.8928    0.0000 C   0  0
    3.8005    3.4260    0.0000 C   0  0
    5.2278    2.9648    0.0000 C   0  0
    2.6807    2.4138    0.0000 C   0  0  1  0  0  0
    1.4672    3.2954    0.0000 N   0  0
    0.0000    3.6073    0.0000 C   0  0
    0.0000    5.1073    0.0000 O   0  0
   -1.4672    3.2954    0.0000 C   0  0  1  0  0  0
   -0.5169    3.3439    0.0000 C   0  0
    0.9545    3.7107    0.0000 S   0  0
    2.3311    3.0315    0.0000 S   0  0
    3.0275    1.6609    0.0000 C   0  0
    2.7162    0.1697    0.0000 C   0  0
    1.4607   -0.6414    0.0000 C   0  0
    1.5956   -2.1659    0.0000 C   0  0
    0.7500   -3.5285    0.0000 C   0  0  2  0  0  0
   -0.7500   -3.5285    0.0000 C   0  0
   -2.1203   -2.9184    0.0000 C   0  0
   -3.0020   -4.1319    0.0000 O   0  0
   -3.1240   -1.8037    0.0000 N   0  0
   -3.5875   -0.3771    0.0000 C   0  0  2  0  0  0
   -5.0884   -0.5378    0.0000 C   0  0
   -5.6966   -1.9090    0.0000 C   0  0
   -5.9721    0.6742    0.0000 C   0  0
   -3.4308    1.1147    0.0000 C   0  0
   -4.8573    1.5782    0.0000 O   0  0
   -2.6808    2.4137    0.0000 N   0  0
    2.1203   -2.9184    0.0000 O   0  0
    3.1240   -1.8036    0.0000 C   0  0
    4.4231   -2.5536    0.0000 O   0  0
    3.5875   -0.3771    0.0000 C   0  0
    3.4307    1.1147    0.0000 C   0  0  2  0  0  0
    4.8573    1.5782    0.0000 O   0  0
  1  2  1  0
  2  3  1  0
  4  2  1  6
  4  5  1  0
  5  6  1  0
  6  7  2  0
  6  8  1  0
  8  9  1  6
  9 10  1  0
 10 11  1  0
 11 12  1  0
 12 13  1  0
 13 14  1  0
 14 15  2  0
 16 15  1  6
 16 17  1  0
 17 18  1  0
 18 19  2  0
 18 20  1  0
 20 21  1  0
 21 22  1  6
 22 23  1  0
 22 24  1  0
 21 25  1  0
 25 26  2  0
 25 27  1  0
 27  8  1  0
 16 28  1  0
 28 29  1  0
 29 30  2  0
 29 31  1  0
 31 32  1  0
 32  4  1  0
 32 33  1  1
M  END
> <Smiles>
CC(C)[C@H]1NC(=O)[C@H]2CSSCC/C=C/[C@H](CC(=O)N[C@H](C(C)C)C(=O)N2)OC(=O)C[C@@H]1O

> <ID>
CHEMBL2313363

> <standard_value>
0.58

> <IC50_uM>
0.00058

> <Activity>
Yes

> <pIC50>
9.236572006

> <BCI>
1

$$$$

  SciTegic03012415362D

 59 67  0  0  1  0            999 V2000
    2.3980    5.1974    0.0000 C   0  0
    1.0617    4.5159    0.0000 C   0  0
   -0.2000    5.2900    0.0000 C   0  0  2  0  0  0
   -0.2341    6.7896    0.0000 O   0  0
   -0.2000    4.0900    0.0000 C   0  0
   -1.2300    3.5100    0.0000 C   0  0  2  0  0  0
   -2.2500    4.0900    0.0000 C   0  0
   -2.2500    5.2900    0.0000 N   0  0  3  0  0  0
   -3.9200    5.5000    0.0000 C   0  0
   -5.4100    4.7800    0.0000 C   0  0
   -5.7000    3.1300    0.0000 C   0  0
   -4.9700    1.7900    0.0000 C   0  0
   -6.0100    0.6800    0.0000 N   0  0
   -7.4000    1.3200    0.0000 C   0  0
   -8.8100    0.7400    0.0000 C   0  0
  -10.0200    1.6700    0.0000 C   0  0
   -9.8300    3.1800    0.0000 C   0  0
   -8.4200    3.7700    0.0000 C   0  0
   -7.2000    2.8400    0.0000 C   0  0
   -3.3800    1.2800    0.0000 C   0  0  1  0  0  0
   -4.3011    0.1350    0.0000 C   0  0
   -5.7734    0.4218    0.0000 O   0  0
   -3.8135   -1.2844    0.0000 O   0  0
   -4.7977   -2.4164    0.0000 C   0  0
   -2.3301    0.2513    0.0000 C   0  0
   -2.7110   -1.1720    0.0000 C   0  0
   -1.6165   -2.2180    0.0000 C   0  0
   -0.2693   -1.8150    0.0000 C   0  0
    0.1414   -0.3694    0.0000 C   0  0
   -0.9061    0.6597    0.0000 C   0  0
   -0.5303    2.1129    0.0000 O   0  0
    0.4332    2.3808    0.0000 C   0  0
    0.6269   -3.0200    0.0000 N   0  0
    2.1267   -3.0420    0.0000 C   0  0
   -0.2779   -4.1651    0.0000 C   0  0  1  0  0  0
   -0.0140   -5.6041    0.0000 C   0  0  1  0  0  0
    1.0936   -4.5926    0.0000 O   0  0
    0.2302   -7.0636    0.0000 C   0  0
   -0.5575   -7.6797    0.0000 O   0  0
    1.6218   -7.6255    0.0000 O   0  0
    1.8319   -9.1108    0.0000 C   0  0
   -1.1529   -6.6124    0.0000 C   0  0  2  0  0  0
   -0.8799   -8.0880    0.0000 O   0  0
   -2.0206   -9.0633    0.0000 C   0  0
   -1.8376  -10.0464    0.0000 C   0  0
   -3.4352   -8.5642    0.0000 O   0  0
   -2.5335   -6.1188    0.0000 C   0  0  2  0  0  0
   -2.2630   -7.5946    0.0000 C   0  0
   -3.0242   -8.2431    0.0000 C   0  0
   -3.6287   -7.0542    0.0000 C   0  0
   -5.0406   -6.5494    0.0000 C   0  0
   -5.3459   -4.5824    0.0000 C   0  0
   -4.0445   -3.8623    0.0000 N   0  0  3  0  0  0
   -3.7291   -2.4358    0.0000 C   0  0
   -2.2452   -2.2939    0.0000 C   0  0
   -1.6741   -3.6659    0.0000 C   0  0  2  0  0  0
   -2.8019   -4.6427    0.0000 C   0  0  2  0  0  0
   -1.8700    1.9700    0.0000 C   0  0
   -1.2300    5.8900    0.0000 C   0  0
  1  2  1  0
  2  3  1  0
  3  4  1  1
  3  5  1  0
  6  5  1  1
  6  7  1  0
  8  7  1  4
  8  9  1  0
  9 10  1  0
 10 11  1  0
 11 12  2  0
 12 13  1  0
 13 14  1  0
 14 15  2  0
 15 16  1  0
 16 17  2  0
 17 18  1  0
 18 19  2  0
 19 11  1  0
 19 14  1  0
 12 20  1  0
 20 21  1  1
 21 22  2  0
 21 23  1  0
 23 24  1  0
 20 25  1  0
 25 26  2  0
 26 27  1  0
 27 28  2  0
 28 29  1  0
 29 30  2  0
 30 25  1  0
 30 31  1  0
 31 32  1  0
 28 33  1  0
 33 34  1  0
 35 33  1  1
 35 36  1  0
 36 37  1  6
 36 38  1  0
 38 39  2  0
 38 40  1  0
 40 41  1  0
 36 42  1  0
 42 43  1  6
 43 44  1  0
 44 45  1  0
 44 46  2  0
 42 47  1  0
 47 48  1  1
 48 49  1  0
 47 50  1  0
 50 51  2  0
 51 52  1  0
 53 52  1  4
 53 54  1  0
 54 55  1  0
 56 55  1  6
 56 27  1  0
 56 35  1  0
 56 57  1  0
 57 53  1  6
 57 47  1  0
 20 58  1  0
 58  6  1  0
  8 59  1  0
 59  3  1  0
M  END
> <Smiles>
CC[C@]1(O)C[C@@H]2CN(CCc3c([nH]c4ccccc34)[C@@](C(=O)OC)(c3cc4c(cc3OC)N(C)[C@H]3[C@@](O)(C(=O)OC)[C@H](OC(C)=O)[C@]5(CC)C=CCN6CC[C@]43[C@@H]65)C2)C1

> <ID>
CHEMBL159

> <standard_value>
0.6

> <IC50_uM>
0.0006

> <Activity>
Yes

> <pIC50>
9.22184875

> <BCI>
1

$$$$

  SciTegic03012415362D

 35 36  0  0  1  0            999 V2000
    4.5992    5.8995    0.0000 C   0  0
    3.4865    4.8936    0.0000 C   0  0
    3.8005    3.4260    0.0000 C   0  0  2  0  0  0
    5.2278    2.9648    0.0000 C   0  0
    2.6807    2.4138    0.0000 C   0  0  1  0  0  0
    1.4672    3.2954    0.0000 N   0  0
    0.0000    3.6073    0.0000 C   0  0
    0.0000    5.1073    0.0000 O   0  0
   -1.4672    3.2954    0.0000 C   0  0  1  0  0  0
   -0.5169    3.3439    0.0000 C   0  0
    0.9545    3.7107    0.0000 S   0  0
    2.3311    3.0315    0.0000 S   0  0
    3.0275    1.6609    0.0000 C   0  0
    2.7162    0.1697    0.0000 C   0  0
    1.4607   -0.6414    0.0000 C   0  0
    1.5956   -2.1659    0.0000 C   0  0
    0.7500   -3.5285    0.0000 C   0  0  2  0  0  0
   -0.7500   -3.5285    0.0000 C   0  0
   -2.1203   -2.9184    0.0000 C   0  0
   -3.0020   -4.1319    0.0000 O   0  0
   -3.1240   -1.8037    0.0000 N   0  0
   -3.5875   -0.3771    0.0000 C   0  0  2  0  0  0
   -5.0884   -0.5378    0.0000 C   0  0
   -5.6970   -1.9097    0.0000 C   0  0
   -7.1893   -2.0696    0.0000 S   0  0
   -7.7975   -3.4407    0.0000 C   0  0
   -3.4308    1.1147    0.0000 C   0  0
   -4.8573    1.5782    0.0000 O   0  0
   -2.6808    2.4137    0.0000 N   0  0
    2.1203   -2.9184    0.0000 O   0  0
    3.1240   -1.8036    0.0000 C   0  0
    4.4231   -2.5536    0.0000 O   0  0
    3.5875   -0.3771    0.0000 C   0  0
    3.4307    1.1147    0.0000 C   0  0  2  0  0  0
    4.8573    1.5782    0.0000 O   0  0
  1  2  1  0
  2  3  1  0
  3  4  1  6
  3  5  1  0
  5  6  1  6
  6  7  1  0
  7  8  2  0
  7  9  1  0
  9 10  1  6
 10 11  1  0
 11 12  1  0
 12 13  1  0
 13 14  1  0
 14 15  1  0
 15 16  2  0
 17 16  1  6
 17 18  1  0
 18 19  1  0
 19 20  2  0
 19 21  1  0
 21 22  1  0
 22 23  1  6
 23 24  1  0
 24 25  1  0
 25 26  1  0
 22 27  1  0
 27 28  2  0
 27 29  1  0
 29  9  1  0
 17 30  1  0
 30 31  1  0
 31 32  2  0
 31 33  1  0
 33 34  1  0
 34  5  1  0
 34 35  1  1
M  END
> <Smiles>
CC[C@H](C)[C@H]1NC(=O)[C@H]2CSSCC/C=C/[C@H](CC(=O)N[C@H](CCSC)C(=O)N2)OC(=O)C[C@@H]1O

> <ID>
CHEMBL1836142

> <standard_value>
0.7

> <IC50_uM>
0.0007

> <Activity>
Yes

> <pIC50>
9.15490196

> <BCI>
1

$$$$

  SciTegic03012415362D

 34 35  0  0  1  0            999 V2000
   -2.2928   -1.5841    0.0000 C   0  0
   -0.8708   -2.0614    0.0000 S   0  0
    0.2549   -1.0687    0.0000 C   0  0
   -0.0411    0.4026    0.0000 C   0  0
    1.0805    1.3921    0.0000 C   0  0  1  0  0  0
    1.1117    2.9045    0.0000 N   0  0
   -0.0585    3.8372    0.0000 C   0  0
    0.2398    5.3072    0.0000 O   0  0
   -1.4863    3.4383    0.0000 C   0  0
   -2.2309    2.1592    0.0000 C   0  0  1  0  0  0
   -1.9007    0.7071    0.0000 C   0  0
   -3.0988   -0.1591    0.0000 C   0  0
   -3.1207   -1.6433    0.0000 C   0  0
   -2.2504   -2.8618    0.0000 C   0  0
   -0.8607   -3.4534    0.0000 S   0  0
    0.6552   -3.3548    0.0000 S   0  0
    2.0062   -2.6517    0.0000 C   0  0
    2.9767   -1.4794    0.0000 C   0  0  1  0  0  0
    3.3850   -0.0171    0.0000 N   0  0
    2.5567    1.2356    0.0000 C   0  0
    3.3358    2.5174    0.0000 O   0  0
    1.8063   -2.9726    0.0000 C   0  0
    2.7336   -4.1517    0.0000 O   0  0
    0.4409   -3.5936    0.0000 N   0  0
   -1.0591   -3.6055    0.0000 C   0  0  2  0  0  0
   -1.3583   -5.0849    0.0000 C   0  0
   -0.2343   -6.0782    0.0000 C   0  0
   -2.7803   -5.5621    0.0000 C   0  0
   -2.4342   -3.0062    0.0000 C   0  0  1  0  0  0
   -3.3062   -4.2267    0.0000 O   0  0
   -3.4467   -1.8995    0.0000 C   0  0
   -3.9215   -0.4766    0.0000 C   0  0
   -5.4120   -0.6452    0.0000 O   0  0
   -3.7765    1.0163    0.0000 O   0  0
  1  2  1  0
  2  3  1  0
  3  4  1  0
  5  4  1  1
  5  6  1  0
  6  7  1  0
  7  8  2  0
  7  9  1  0
 10  9  1  1
 10 11  1  0
 11 12  2  0
 12 13  1  0
 13 14  1  0
 14 15  1  0
 15 16  1  0
 16 17  1  0
 18 17  1  6
 18 19  1  0
 19 20  1  0
 20  5  1  0
 20 21  2  0
 18 22  1  0
 22 23  2  0
 22 24  1  0
 24 25  1  0
 25 26  1  6
 26 27  1  0
 26 28  1  0
 25 29  1  0
 29 30  1  1
 29 31  1  0
 31 32  1  0
 32 33  2  0
 32 34  1  0
 34 10  1  0
M  END
> <Smiles>
CSCC[C@H]1NC(=O)C[C@H]2/C=C/CCSSC[C@@H](NC1=O)C(=O)N[C@H](C(C)C)[C@@H](O)CC(=O)O2

> <ID>
CHEMBL3126833

> <standard_value>
0.72

> <IC50_uM>
0.00072

> <Activity>
Yes

> <pIC50>
9.142667504

> <BCI>
1

$$$$

  SciTegic03012415362D

 23 24  0  0  0  0            999 V2000
    3.8983   -0.7459    0.0000 C   0  0
    2.6003   -1.4977    0.0000 O   0  0
    1.2990   -0.7500    0.0000 C   0  0
    1.2990    0.7500    0.0000 C   0  0
    0.0000    1.5000    0.0000 C   0  0
   -1.2990    0.7500    0.0000 C   0  0
   -2.6003    1.4977    0.0000 C   0  0
   -3.8990    0.7455    0.0000 C   0  0
   -3.8978   -0.7554    0.0000 C   0  0
   -5.1947   -1.5091    0.0000 C   0  0
   -5.1905   -3.0091    0.0000 C   0  0
   -6.4897   -3.7605    0.0000 O   0  0
   -7.7898   -3.0124    0.0000 C   0  0
   -3.8893   -3.7554    0.0000 C   0  0
   -3.8820   -5.2563    0.0000 O   0  0
   -2.5798   -6.0007    0.0000 C   0  0
   -2.5924   -3.0018    0.0000 C   0  0
   -1.2890   -3.7458    0.0000 O   0  0
   -0.4251   -3.2422    0.0000 C   0  0
   -2.5967   -1.5018    0.0000 C   0  0
   -1.2990   -0.7500    0.0000 C   0  0
    0.0000   -1.5000    0.0000 C   0  0
    0.0000   -2.5000    0.0000 O   0  0
  1  2  1  0
  2  3  1  0
  3  4  2  0
  4  5  1  0
  5  6  2  0
  6  7  1  0
  7  8  2  0
  8  9  1  0
  9 10  2  0
 10 11  1  0
 11 12  1  0
 12 13  1  0
 11 14  2  0
 14 15  1  0
 15 16  1  0
 14 17  1  0
 17 18  1  0
 18 19  1  0
 17 20  2  0
 20  9  1  0
  6 21  1  0
 21 22  2  0
 22  3  1  0
 22 23  1  0
M  END
> <Smiles>
COc1ccc(/C=C\c2cc(OC)c(OC)c(OC)c2)cc1O

> <ID>
CHEMBL67

> <standard_value>
2

> <IC50_uM>
0.002

> <Activity>
Yes

> <pIC50>
8.698970004

> <BCI>
1

$$$$

  SciTegic03012415362D

 36 41  0  0  0  0            999 V2000
   -0.6923   -4.0811    0.0000 C   0  0
    0.3114   -2.9665    0.0000 N   0  0
    1.8032   -3.1233    0.0000 C   0  0
    2.5532   -4.4223    0.0000 O   0  0
    2.4133   -1.7530    0.0000 N   0  0
    3.8813   -1.4408    0.0000 C   0  0
    4.9619   -2.4739    0.0000 C   0  0
    6.4015   -2.0524    0.0000 C   0  0
    6.7561   -0.5949    0.0000 C   0  0
    8.1965   -0.1731    0.0000 C   0  0
    8.5507    1.2845    0.0000 C   0  0
    9.6358    0.2491    0.0000 C   0  0
    9.2826   -1.2089    0.0000 C   0  0
   10.3681   -2.2441    0.0000 N   0  0
    5.6713    0.4410    0.0000 C   0  0
    4.2318    0.0194    0.0000 C   0  0
    1.2990   -0.7500    0.0000 C   0  0
    1.2990    0.7500    0.0000 C   0  0
    2.5981    1.5000    0.0000 C   0  0
    2.5981    3.0000    0.0000 C   0  0
    3.8977    3.7504    0.0000 C   0  0
    5.1981    3.0025    0.0000 C   0  0
    6.4959    3.7546    0.0000 N   0  0
    6.4935    5.2546    0.0000 C   0  0
    7.7914    6.0067    0.0000 C   0  0
    7.7890    7.5067    0.0000 C   0  0
    6.4887    8.2546    0.0000 C   0  0
    5.1909    7.5025    0.0000 C   0  0
    5.1933    6.0025    0.0000 C   0  0
    3.8954    5.2505    0.0000 C   0  0
    1.2990    3.7500    0.0000 C   0  0
    0.0000    3.0000    0.0000 C   0  0
    0.0000    1.5000    0.0000 C   0  0
   -1.2990    0.7500    0.0000 N   0  0
   -1.2990   -0.7500    0.0000 C   0  0
    0.0000   -1.5000    0.0000 C   0  0
  1  2  1  0
  2  3  1  0
  3  4  2  0
  3  5  1  0
  5  6  1  0
  6  7  2  0
  7  8  1  0
  8  9  2  0
  9 10  1  0
 10 11  1  0
 10 12  1  0
 10 13  1  0
 13 14  3  0
  9 15  1  0
 15 16  2  0
 16  6  1  0
  5 17  1  0
 17 18  2  0
 18 19  1  0
 19 20  2  0
 20 21  1  0
 21 22  2  0
 22 23  1  0
 23 24  2  0
 24 25  1  0
 25 26  2  0
 26 27  1  0
 27 28  2  0
 28 29  1  0
 29 24  1  0
 29 30  2  0
 30 21  1  0
 20 31  1  0
 31 32  2  0
 32 33  1  0
 33 18  1  0
 33 34  2  0
 34 35  1  0
 35 36  2  0
 36 17  1  0
 36  2  1  0
M  END
> <Smiles>
Cn1c(=O)n(-c2ccc(C(C)(C)C#N)cc2)c2c3cc(-c4cnc5ccccc5c4)ccc3ncc21

> <ID>
CHEMBL1879463

> <standard_value>
2.57

> <IC50_uM>
0.00257

> <Activity>
Yes

> <pIC50>
8.590066877

> <BCI>
1

$$$$

  SciTegic03012415362D

 50 57  0  0  0  0            999 V2000
    2.5951   -3.0031    0.0000 C   0  0
    2.5973   -1.5031    0.0000 O   0  0
    1.2990   -0.7500    0.0000 C   0  0
    1.2990    0.7500    0.0000 C   0  0
    0.0000    1.5000    0.0000 C   0  0
   -1.2990    0.7500    0.0000 C   0  0
   -1.2990   -0.7500    0.0000 C   0  0
    0.0000   -1.5000    0.0000 C   0  0
   -2.5981   -1.5000    0.0000 C   0  0
   -2.5981   -3.0000    0.0000 O   0  0
   -3.8971   -0.7500    0.0000 C   0  0
   -5.3388   -1.3142    0.0000 C   0  0
   -5.5464   -2.8010    0.0000 N   0  0
   -6.9372   -3.3651    0.0000 C   0  0
   -7.1450   -4.8515    0.0000 C   0  0
   -8.5357   -5.4156    0.0000 C   0  0
   -8.7435   -6.9020    0.0000 N   0  0
  -10.1327   -7.4679    0.0000 C   0  0
  -10.3374   -8.9538    0.0000 C   0  0
   -9.1528   -9.8740    0.0000 N   0  0
   -9.3545  -11.3613    0.0000 C   0  0
   -8.1680  -12.2803    0.0000 C   0  0
   -8.3697  -13.7675    0.0000 C   0  0
   -7.1832  -14.6865    0.0000 N   0  0
   -7.3826  -16.1733    0.0000 C   0  0
   -8.7698  -16.7439    0.0000 O   0  0
   -6.1948  -17.0894    0.0000 C   0  0
   -6.3943  -18.5761    0.0000 C   0  0
   -5.2066  -19.4922    0.0000 C   0  0
   -3.8193  -18.9216    0.0000 C   0  0
   -3.6198  -17.4349    0.0000 C   0  0
   -2.2326  -16.8644    0.0000 C   0  0
   -2.0331  -15.3777    0.0000 C   0  0
   -0.6462  -14.8040    0.0000 N   0  3
   -0.4488  -13.3170    0.0000 O   0  0
    0.5431  -15.7180    0.0000 O   0  5
   -3.2208  -14.4616    0.0000 C   0  0
   -4.6081  -15.0321    0.0000 C   0  0
   -4.8076  -16.5188    0.0000 C   0  0
   -5.7958  -14.1160    0.0000 C   0  0
   -5.5963  -12.6294    0.0000 O   0  0
   -7.7636   -9.3083    0.0000 C   0  0
   -7.5589   -7.8223    0.0000 C   0  0
   -6.5524   -0.4326    0.0000 C   0  0
   -6.3956    1.0592    0.0000 C   0  0
   -5.0114    1.7529    0.0000 C   0  0
   -4.4013    3.1233    0.0000 N   0  0
   -2.9095    2.9665    0.0000 C   0  0
   -2.5981    1.5000    0.0000 N   0  0
   -3.8971    0.7500    0.0000 C   0  0
  1  2  1  0
  2  3  1  0
  3  4  2  0
  4  5  1  0
  5  6  2  0
  6  7  1  0
  7  8  2  0
  8  3  1  0
  7  9  1  0
  9 10  2  0
  9 11  1  0
 11 12  2  0
 12 13  1  0
 13 14  1  0
 14 15  1  0
 15 16  1  0
 16 17  1  0
 17 18  1  0
 18 19  1  0
 19 20  1  0
 20 21  1  0
 21 22  1  0
 22 23  1  0
 23 24  1  0
 24 25  1  0
 25 26  2  0
 25 27  1  0
 27 28  2  0
 28 29  1  0
 29 30  2  0
 30 31  1  0
 31 32  2  0
 32 33  1  0
 33 34  1  0
 34 35  2  0
 34 36  1  0
 33 37  2  0
 37 38  1  0
 38 39  2  0
 39 27  1  0
 39 31  1  0
 38 40  1  0
 40 24  1  0
 40 41  2  0
 20 42  1  0
 42 43  1  0
 43 17  1  0
 12 44  1  0
 44 45  2  0
 45 46  1  0
 46 47  1  0
 47 48  2  0
 48 49  1  0
 49  6  1  0
 49 50  1  0
 50 46  2  0
 50 11  1  0
M  CHG  2  34   1  36  -1
M  END
> <Smiles>
COc1ccc2c(c1)c(=O)c1c(NCCCN3CCN(CCCN4C(=O)c5cccc6cc([N+](=O)[O-])cc(c56)C4=O)CC3)ccc3ncn2c31.CS(=O)(=O)O

> <ID>
CHEMBL612113

> <standard_value>
2.754

> <IC50_uM>
0.002754

> <Activity>
Yes

> <pIC50>
8.560036064

> <BCI>
1

> <RemovedSalts>
CS(=O)(=O)O

$$$$

  SciTegic03012415362D

 29 33  0  0  0  0            999 V2000
    3.8983   -0.7459    0.0000 C   0  0
    2.6003   -1.4977    0.0000 O   0  0
    1.2990   -0.7500    0.0000 C   0  0
    1.2990    0.7500    0.0000 C   0  0
    0.0000    1.5000    0.0000 C   0  0
   -1.2990    0.7500    0.0000 C   0  0
   -2.5981    1.5000    0.0000 C   0  0
   -2.5981    3.0000    0.0000 C   0  0
   -1.2991    3.7500    0.0000 C   0  0
   -0.9876    5.2165    0.0000 C   0  0
   -1.8692    6.4288    0.0000 C   0  0
   -3.3609    6.2717    0.0000 O   0  0
   -1.2591    7.7991    0.0000 O   0  0
    0.2327    7.9559    0.0000 C   0  0
    0.8428    9.3262    0.0000 C   0  0
    2.3346    9.4830    0.0000 C   0  0
    2.9447   10.8533    0.0000 O   0  0
    3.2163    8.2695    0.0000 C   0  0
    4.7092    8.4233    0.0000 O   0  0
    5.5892    7.2085    0.0000 C   0  0
    2.6062    6.8992    0.0000 C   0  0
    1.1144    6.7424    0.0000 C   0  0
    0.5042    5.3733    0.0000 C   0  0
    1.1143    4.0030    0.0000 N   0  0
    2.5815    3.6910    0.0000 C   0  0
    0.0000    3.0000    0.0000 C   0  0
   -1.2990   -0.7500    0.0000 C   0  0
    0.0000   -1.5000    0.0000 C   0  0
    0.0000   -3.0000    0.0000 O   0  0
  1  2  1  0
  2  3  1  0
  3  4  2  0
  4  5  1  0
  5  6  2  0
  6  7  1  0
  7  8  2  0
  8  9  1  0
  9 10  1  0
 10 11  1  0
 11 12  2  0
 11 13  1  0
 13 14  1  0
 14 15  2  0
 15 16  1  0
 16 17  1  0
 16 18  2  0
 18 19  1  0
 19 20  1  0
 18 21  1  0
 21 22  2  0
 22 14  1  0
 22 23  1  0
 23 10  2  0
 23 24  1  0
 24 25  1  0
 24 26  1  0
 26  5  1  0
 26  9  2  0
  6 27  1  0
 27 28  2  0
 28  3  1  0
 28 29  1  0
M  END
> <Smiles>
COc1cc2c(ccc3c4c(=O)oc5cc(O)c(OC)cc5c4n(C)c23)cc1O

> <ID>
CHEMBL4552837

> <standard_value>
2.818

> <IC50_uM>
0.002818

> <Activity>
Yes

> <pIC50>
8.550059011

> <BCI>
1

$$$$

  SciTegic03012415362D

 62 68  0  0  1  0            999 V2000
   -2.5378  -11.6641    0.0000 C   0  0
   -4.0148  -11.9258    0.0000 C   0  0
   -4.5262  -13.3359    0.0000 O   0  0
   -4.9801  -10.7766    0.0000 O   0  0
   -4.9817   -9.2754    0.0000 C   0  0  1  0  0  0
   -3.7152  -10.0114    0.0000 C   0  0
   -2.4168   -9.2604    0.0000 O   0  0
   -3.7088  -11.4849    0.0000 C   0  0  1  0  0  0
   -2.4103  -10.7339    0.0000 C   0  0
   -4.9652  -12.2088    0.0000 C   0  0  2  0  0  0
   -6.2367  -11.4641    0.0000 C   0  0  2  0  0  0
   -7.5385  -12.2118    0.0000 O   0  0
   -9.0161  -11.9490    0.0000 C   0  0
   -9.5265  -10.5385    0.0000 O   0  0
   -9.9833  -13.0966    0.0000 C   0  0
  -11.4605  -12.8361    0.0000 C   0  0
  -12.4248  -13.9850    0.0000 C   0  0
  -11.9119  -15.3946    0.0000 C   0  0
  -10.4347  -15.6553    0.0000 C   0  0
   -9.4704  -14.5063    0.0000 C   0  0
   -6.2382   -9.9992    0.0000 C   0  0  2  0  0  0
   -7.5379  -10.7480    0.0000 O   0  0
   -7.5047   -9.2632    0.0000 C   0  0
   -7.5111   -7.7897    0.0000 C   0  0  2  0  0  0
   -8.8107   -7.0384    0.0000 O   0  0
   -8.8110   -5.5375    0.0000 C   0  0
   -7.5118   -4.7877    0.0000 O   0  0
  -10.1104   -4.7865    0.0000 C   0  0  2  0  0  0
  -11.4095   -5.5363    0.0000 O   0  0
  -10.1106   -3.2857    0.0000 C   0  0  1  0  0  0
  -11.4100   -2.5347    0.0000 N   0  0
  -11.4103   -1.0339    0.0000 C   0  0
  -10.1111   -0.2840    0.0000 O   0  0
  -12.7097   -0.2828    0.0000 C   0  0
  -14.0107   -1.0295    0.0000 C   0  0
  -15.3078   -0.2763    0.0000 C   0  0
  -15.3041    1.2237    0.0000 C   0  0
  -14.0032    1.9705    0.0000 C   0  0
  -12.7060    1.2172    0.0000 C   0  0
   -8.8108   -2.5355    0.0000 C   0  0
   -8.8085   -1.0354    0.0000 C   0  0
   -7.5083   -0.2874    0.0000 C   0  0
   -6.2104   -1.0394    0.0000 C   0  0
   -6.2126   -2.5394    0.0000 C   0  0
   -7.5128   -3.2874    0.0000 C   0  0
   -6.2547   -7.0658    0.0000 C   0  0
   -6.2493   -5.5658    0.0000 C   0  0
   -4.9832   -7.8105    0.0000 C   0  0
   -7.8612   -9.8263    0.0000 C   0  0
   -8.2894  -11.2639    0.0000 C   0  0
   -8.9317   -8.7756    0.0000 C   0  0
   -4.9638  -13.6736    0.0000 C   0  0  2  0  0  0
   -6.4578  -13.6704    0.0000 O   0  0
   -7.2091  -14.9696    0.0000 C   0  0
   -6.4596  -16.2690    0.0000 C   0  0
   -8.7091  -14.9696    0.0000 O   0  0
   -5.6911  -14.9351    0.0000 C   0  0
   -4.4333  -15.6762    0.0000 O   0  0
   -3.6923  -14.4183    0.0000 C   0  0  2  0  0  0
   -2.4359  -13.6945    0.0000 C   0  0
   -2.4423  -12.2210    0.0000 C   0  0  2  0  0  0
   -1.1438  -11.4700    0.0000 O   0  0
  1  2  1  0
  2  3  2  0
  2  4  1  0
  5  4  1  6
  5  6  1  0
  6  7  2  0
  6  8  1  0
  8  9  1  1
 10  8  1  1
 10 11  1  0
 11 12  1  6
 12 13  1  0
 13 14  2  0
 13 15  1  0
 15 16  2  0
 16 17  1  0
 17 18  2  0
 18 19  1  0
 19 20  2  0
 20 15  1  0
 11 21  1  0
 21 22  1  6
 21 23  1  0
 23 24  1  0
 24 25  1  6
 25 26  1  0
 26 27  2  0
 26 28  1  0
 28 29  1  6
 28 30  1  0
 30 31  1  1
 31 32  1  0
 32 33  2  0
 32 34  1  0
 34 35  2  0
 35 36  1  0
 36 37  2  0
 37 38  1  0
 38 39  2  0
 39 34  1  0
 30 40  1  0
 40 41  2  0
 41 42  1  0
 42 43  2  0
 43 44  1  0
 44 45  2  0
 45 40  1  0
 24 46  1  0
 46 47  1  0
 46 48  2  0
 48  5  1  0
 48 49  1  0
 49 21  1  0
 49 50  1  0
 49 51  1  0
 10 52  1  0
 52 53  1  6
 53 54  1  0
 54 55  1  0
 54 56  2  0
 52 57  1  0
 57 58  1  0
 59 58  1  1
 59 52  1  0
 59 60  1  0
 60 61  1  0
 61  8  1  0
 61 62  1  1
M  END
> <Smiles>
CC(=O)O[C@H]1C(=O)[C@@]2(C)[C@H]([C@H](OC(=O)c3ccccc3)[C@]3(O)C[C@H](OC(=O)[C@H](O)[C@@H](NC(=O)c4ccccc4)c4ccccc4)C(C)=C1C3(C)C)[C@]1(OC(C)=O)CO[C@@H]1C[C@@H]2O

> <ID>
CHEMBL428647

> <standard_value>
3.162

> <IC50_uM>
0.003162

> <Activity>
Yes

> <pIC50>
8.500038134

> <BCI>
1

$$$$

  SciTegic03012415362D

 38 40  0  0  1  0            999 V2000
   -5.8573   -3.4686    0.0000 C   0  0
   -5.1408   -2.1508    0.0000 C   0  0
   -5.9243   -0.8716    0.0000 C   0  0
   -3.6400   -2.1100    0.0000 C   0  0  1  0  0  0
   -2.7700   -3.5200    0.0000 N   0  0
   -1.3000   -4.2000    0.0000 C   0  0
   -1.5134   -5.6847    0.0000 O   0  0
    0.3800   -3.9500    0.0000 C   0  0
    1.0600   -2.6100    0.0000 C   0  0  1  0  0  0
    0.5100   -1.7100    0.0000 C   0  0
    1.1200   -0.8600    0.0000 C   0  0
    1.1200    0.1700    0.0000 C   0  0
    0.1700    0.8900    0.0000 C   0  0
   -0.7300    0.2000    0.0000 S   0  0
   -2.2400    0.4400    0.0000 S   0  0
   -2.2400    1.3600    0.0000 C   0  0
   -3.5000    1.7400    0.0000 C   0  0  1  0  0  0
   -4.3000    0.3600    0.0000 N   0  0
   -3.0600   -0.8000    0.0000 C   0  0
   -1.5902   -0.5006    0.0000 O   0  0
   -3.5000    2.9300    0.0000 C   0  0
   -4.7612    3.7421    0.0000 O   0  0
   -1.6300    3.7800    0.0000 N   0  0
    0.9600    3.7800    0.0000 C   0  0  2  0  0  0
    1.8359    4.9889    0.0000 C   0  0
    1.2286    6.3614    0.0000 C   0  0
    2.1079    7.5765    0.0000 C   0  0
    1.4953    8.9457    0.0000 C   0  0
    0.0032    9.0997    0.0000 C   0  0
   -0.8762    7.8846    0.0000 C   0  0
   -0.2636    6.5154    0.0000 C   0  0
    1.8200    2.1800    0.0000 C   0  0
    1.0503    0.8925    0.0000 O   0  0
    3.3500    2.1800    0.0000 N   0  0
    4.4000    0.5600    0.0000 C   0  0
    4.2200   -1.1700    0.0000 C   0  0
    5.5286   -1.9032    0.0000 O   0  0
    2.7300   -2.3100    0.0000 O   0  0
  1  2  1  0
  2  3  1  0
  4  2  1  6
  4  5  1  0
  5  6  1  0
  6  7  2  0
  6  8  1  0
  9  8  1  1
  9 10  1  0
 10 11  2  0
 11 12  1  0
 12 13  1  0
 13 14  1  0
 14 15  1  0
 15 16  1  0
 17 16  1  1
 17 18  1  0
 18 19  1  0
 19  4  1  0
 19 20  2  0
 17 21  1  0
 21 22  2  0
 21 23  1  0
 23 24  1  0
 24 25  1  6
 25 26  1  0
 26 27  2  0
 27 28  1  0
 28 29  2  0
 29 30  1  0
 30 31  2  0
 31 26  1  0
 24 32  1  0
 32 33  2  0
 32 34  1  0
 34 35  1  0
 35 36  1  0
 36 37  2  0
 36 38  1  0
 38  9  1  0
M  END
> <Smiles>
CC(C)[C@H]1NC(=O)C[C@H]2/C=C/CCSSC[C@@H](NC1=O)C(=O)N[C@H](Cc1ccccc1)C(=O)NCC(=O)O2

> <ID>
CHEMBL4746359

> <standard_value>
3.3

> <IC50_uM>
0.0033

> <Activity>
Yes

> <pIC50>
8.48148606

> <BCI>
1

$$$$

  SciTegic03012415362D

 36 37  0  0  1  0            999 V2000
    6.8594   -0.2862    0.0000 C   0  0
    5.8760    0.8464    0.0000 C   0  0
    4.4000    0.5600    0.0000 C   0  0
    4.2200   -1.1700    0.0000 N   0  0
    2.7300   -2.3100    0.0000 C   0  0
    3.3354   -3.6824    0.0000 O   0  0
    1.0600   -2.6100    0.0000 C   0  0  1  0  0  0
    0.5100   -1.7100    0.0000 C   0  0
    1.1200   -0.8600    0.0000 S   0  0
    1.1200    0.1700    0.0000 S   0  0
    0.1700    0.8900    0.0000 C   0  0
   -0.7300    0.2000    0.0000 C   0  0
   -2.2400    0.4400    0.0000 C   0  0
   -2.2400    1.3600    0.0000 C   0  0
   -3.5000    1.7400    0.0000 C   0  0  2  0  0  0
   -4.3000    0.3600    0.0000 C   0  0
   -3.0600   -0.8000    0.0000 C   0  0
   -1.5902   -0.5006    0.0000 O   0  0
   -3.6400   -2.1100    0.0000 N   0  0
   -2.7700   -3.5200    0.0000 C   0  0  2  0  0  0
   -3.7604   -4.6549    0.0000 C   0  0
   -5.2325   -4.3670    0.0000 C   0  0
   -3.2741   -6.0739    0.0000 C   0  0
   -1.3000   -4.2000    0.0000 C   0  0
   -1.5134   -5.6847    0.0000 O   0  0
    0.3800   -3.9500    0.0000 N   0  0
   -3.5000    2.9300    0.0000 O   0  0
   -1.6300    3.7800    0.0000 C   0  0
   -1.9475    5.2460    0.0000 O   0  0
    0.9600    3.7800    0.0000 C   0  0  2  0  0  0
    1.8409    4.9853    0.0000 C   0  0
    3.3318    4.8208    0.0000 C   0  0
    1.2383    6.3589    0.0000 C   0  0
    1.8200    2.1800    0.0000 N   0  0
    3.3500    2.1800    0.0000 C   0  0
    4.0663    3.4979    0.0000 O   0  0
  1  2  1  0
  2  3  2  0
  3  4  1  0
  4  5  1  0
  5  6  2  0
  5  7  1  0
  7  8  1  6
  8  9  1  0
  9 10  1  0
 10 11  1  0
 11 12  1  0
 12 13  1  0
 13 14  2  0
 15 14  1  6
 15 16  1  0
 16 17  1  0
 17 18  2  0
 17 19  1  0
 19 20  1  0
 20 21  1  1
 21 22  1  0
 21 23  1  0
 20 24  1  0
 24 25  2  0
 24 26  1  0
 26  7  1  0
 15 27  1  0
 27 28  1  0
 28 29  2  0
 28 30  1  0
 30 31  1  6
 31 32  1  0
 31 33  1  0
 30 34  1  0
 34 35  1  0
 35  3  1  0
 35 36  2  0
M  END
> <Smiles>
C/C=C1\NC(=O)[C@H]2CSSCC/C=C/[C@H](CC(=O)N[C@H](C(C)C)C(=O)N2)OC(=O)[C@H](C(C)C)NC1=O

> <ID>
CHEMBL343448

> <standard_value>
3.6

> <IC50_uM>
0.0036

> <Activity>
Yes

> <pIC50>
8.443697499

> <BCI>
1

$$$$

  SciTegic03012415362D

 43 47  0  0  1  0            999 V2000
    3.8983   -0.7459    0.0000 C   0  0
    2.6003   -1.4977    0.0000 O   0  0
    1.2990   -0.7500    0.0000 C   0  0
    1.2990    0.7500    0.0000 C   0  0
    0.0000    1.5000    0.0000 C   0  0
   -1.2990    0.7500    0.0000 C   0  0
   -2.5981    1.5000    0.0000 C   0  0
   -2.5981    3.0000    0.0000 C   0  0
   -1.2991    3.7500    0.0000 C   0  0
   -0.9876    5.2165    0.0000 C   0  0
   -1.8692    6.4288    0.0000 C   0  0
   -3.3609    6.2717    0.0000 O   0  0
   -1.2591    7.7991    0.0000 O   0  0
    0.2327    7.9559    0.0000 C   0  0
    0.8428    9.3262    0.0000 C   0  0
    2.3346    9.4830    0.0000 C   0  0
    2.9422   10.8553    0.0000 O   0  0
    2.0584   12.0683    0.0000 C   0  0
    0.5668   11.9089    0.0000 O   0  0
    2.6660   13.4406    0.0000 C   0  0  1  0  0  0
    4.1575   13.6000    0.0000 N   0  0
    1.7821   14.6535    0.0000 C   0  0
    2.3894   16.0251    0.0000 C   0  0
    0.2906   14.4941    0.0000 C   0  0
    3.2163    8.2695    0.0000 C   0  0
    4.7092    8.4233    0.0000 O   0  0
    5.5892    7.2085    0.0000 C   0  0
    2.6062    6.8992    0.0000 C   0  0
    1.1144    6.7424    0.0000 C   0  0
    0.5042    5.3733    0.0000 C   0  0
    1.1143    4.0030    0.0000 N   0  0
    2.5815    3.6910    0.0000 C   0  0
    0.0000    3.0000    0.0000 C   0  0
   -1.2990   -0.7500    0.0000 C   0  0
    0.0000   -1.5000    0.0000 C   0  0
   -0.0031   -3.0008    0.0000 O   0  0
   -1.3039   -3.7494    0.0000 C   0  0
   -2.6016   -2.9971    0.0000 O   0  0
   -1.3070   -5.2502    0.0000 C   0  0  1  0  0  0
   -0.0092   -6.0025    0.0000 N   0  0
   -2.6078   -5.9988    0.0000 C   0  0
   -2.6109   -7.4988    0.0000 C   0  0
   -3.9055   -5.2465    0.0000 C   0  0
  1  2  1  0
  2  3  1  0
  3  4  2  0
  4  5  1  0
  5  6  2  0
  6  7  1  0
  7  8  2  0
  8  9  1  0
  9 10  1  0
 10 11  1  0
 11 12  2  0
 11 13  1  0
 13 14  1  0
 14 15  2  0
 15 16  1  0
 16 17  1  0
 17 18  1  0
 18 19  2  0
 18 20  1  0
 20 21  1  6
 20 22  1  0
 22 23  1  0
 22 24  1  0
 16 25  2  0
 25 26  1  0
 26 27  1  0
 25 28  1  0
 28 29  2  0
 29 14  1  0
 29 30  1  0
 30 10  2  0
 30 31  1  0
 31 32  1  0
 31 33  1  0
 33  5  1  0
 33  9  2  0
  6 34  1  0
 34 35  2  0
 35  3  1  0
 35 36  1  0
 36 37  1  0
 37 38  2  0
 37 39  1  0
 39 40  1  1
 39 41  1  0
 41 42  1  0
 41 43  1  0
M  END
> <Smiles>
COc1cc2c(ccc3c4c(=O)oc5cc(OC(=O)[C@@H](N)C(C)C)c(OC)cc5c4n(C)c23)cc1OC(=O)[C@@H](N)C(C)C.O=C(O)C(F)(F)F.O=C(O)C(F)(F)F

> <ID>
CHEMBL4447038

> <standard_value>
4.169

> <IC50_uM>
0.004169

> <Activity>
Yes

> <pIC50>
8.379968105

> <BCI>
1

> <RemovedSalts>
OC(=O)C(F)(F)F
OC(=O)C(F)(F)F

$$$$

  SciTegic03012415362D

 34 39  0  0  0  0            999 V2000
   -0.6923   -4.0811    0.0000 O   0  0
    0.3114   -2.9665    0.0000 C   0  0
    1.8032   -3.1233    0.0000 C   0  0
    2.5536   -4.4230    0.0000 C   0  0
    2.0412   -5.8141    0.0000 N   0  0
    3.2310   -6.7275    0.0000 N   0  0
    4.4674   -5.8782    0.0000 C   0  0
    5.8820   -6.3795    0.0000 C   0  0
    6.2630   -7.8251    0.0000 C   0  0
    7.7106   -8.2183    0.0000 C   0  0
    8.7749   -7.1614    0.0000 C   0  0
   10.2224   -7.5546    0.0000 Cl  0  0
    8.3917   -5.7111    0.0000 C   0  0
    6.9441   -5.3179    0.0000 C   0  0
    4.0417   -4.4398    0.0000 O   0  0
    2.4133   -1.7530    0.0000 S   0  0
    1.2990   -0.7500    0.0000 C   0  0
    1.2990    0.7500    0.0000 N   0  0
    0.0000    1.5000    0.0000 N   0  0
   -1.2990    0.7500    0.0000 C   0  0
   -2.5987    1.5004    0.0000 C   0  0
   -2.6012    3.0004    0.0000 C   0  0
   -3.9015    3.7484    0.0000 C   0  0
   -5.1993    2.9963    0.0000 C   0  0
   -5.1969    1.4963    0.0000 C   0  0
   -3.8967    0.7484    0.0000 C   0  0
   -1.2990   -0.7500    0.0000 C   0  0
   -2.5987   -1.5004    0.0000 C   0  0
   -3.8991   -0.7525    0.0000 C   0  0
   -5.1969   -1.5046    0.0000 C   0  0
   -5.1945   -3.0046    0.0000 C   0  0
   -3.8943   -3.7525    0.0000 C   0  0
   -2.5964   -3.0004    0.0000 C   0  0
    0.0000   -1.5000    0.0000 C   0  0
  1  2  1  0
  2  3  2  0
  3  4  1  0
  4  5  2  0
  5  6  1  0
  6  7  2  0
  7  8  1  0
  8  9  2  0
  9 10  1  0
 10 11  2  0
 11 12  1  0
 11 13  1  0
 13 14  2  0
 14  8  1  0
  7 15  1  0
 15  4  1  0
  3 16  1  0
 16 17  1  0
 17 18  2  0
 18 19  1  0
 19 20  2  0
 20 21  1  0
 21 22  2  0
 22 23  1  0
 23 24  2  0
 24 25  1  0
 25 26  2  0
 26 21  1  0
 20 27  1  0
 27 28  1  0
 28 29  2  0
 29 30  1  0
 30 31  2  0
 31 32  1  0
 32 33  2  0
 33 28  1  0
 27 34  2  0
 34  2  1  0
 34 17  1  0
M  END
> <Smiles>
Oc1c(-c2nnc(-c3ccc(Cl)cc3)o2)sc2nnc(-c3ccccc3)c(-c3ccccc3)c12

> <ID>
CHEMBL2299273

> <standard_value>
4.748

> <IC50_uM>
0.004748

> <Activity>
Yes

> <pIC50>
8.32348929

> <BCI>
1

$$$$

  SciTegic03012415362D

 30 33  0  0  0  0            999 V2000
    3.8983   -0.7459    0.0000 C   0  0
    2.6003   -1.4977    0.0000 O   0  0
    1.2990   -0.7500    0.0000 C   0  0
    1.2990    0.7500    0.0000 C   0  0
    0.0000    1.5000    0.0000 C   0  0
   -1.2990    0.7500    0.0000 C   0  0
   -1.2990   -0.7500    0.0000 C   0  0
    0.0000   -1.5000    0.0000 C   0  0
   -0.0031   -3.0008    0.0000 O   0  0
   -1.3032   -3.7490    0.0000 C   0  0
   -2.4133    1.7530    0.0000 C   0  0
   -1.8032    3.1233    0.0000 C   0  0
   -2.6838    4.3363    0.0000 C   0  0
   -2.0737    5.7066    0.0000 C   0  0
   -2.9554    6.9201    0.0000 C   0  0
   -4.4472    6.7633    0.0000 C   0  0
   -5.3318    7.9757    0.0000 N   0  3
   -6.8234    7.8168    0.0000 O   0  0
   -4.7241    9.3471    0.0000 O   0  5
   -5.0572    5.3930    0.0000 C   0  0
   -4.1756    4.1795    0.0000 C   0  0
   -4.7857    2.8092    0.0000 C   0  0
   -6.2774    2.6524    0.0000 O   0  0
   -3.9040    1.5956    0.0000 N   0  0
   -4.5167    0.2256    0.0000 C   0  0
   -6.0094    0.0702    0.0000 C   0  0
   -6.6221   -1.2999    0.0000 C   0  0
   -8.1141   -1.4552    0.0000 N   0  0
   -0.3115    2.9665    0.0000 C   0  0
    0.6923    4.0811    0.0000 O   0  0
  1  2  1  0
  2  3  1  0
  3  4  2  0
  4  5  1  0
  5  6  2  0
  6  7  1  0
  7  8  2  0
  8  3  1  0
  8  9  1  0
  9 10  1  0
  6 11  1  0
 11 12  2  0
 12 13  1  0
 13 14  2  0
 14 15  1  0
 15 16  2  0
 16 17  1  0
 17 18  2  0
 17 19  1  0
 16 20  1  0
 20 21  2  0
 21 13  1  0
 21 22  1  0
 22 23  2  0
 22 24  1  0
 24 11  1  0
 24 25  1  0
 25 26  1  0
 26 27  1  0
 27 28  1  0
 12 29  1  0
 29  5  1  0
 29 30  2  0
M  CHG  2  17   1  19  -1
M  END
> <Smiles>
COc1cc2c(cc1OC)-c1c(c3ccc([N+](=O)[O-])cc3c(=O)n1CCCN)C2=O

> <ID>
CHEMBL219171

> <standard_value>
5

> <IC50_uM>
0.005

> <Activity>
Yes

> <pIC50>
8.301029996

> <BCI>
1

$$$$

  SciTegic03012415362D

 44 47  0  0  1  0            999 V2000
   -5.4941  -11.6152    0.0000 C   0  0
   -5.2179  -10.1409    0.0000 C   0  0
   -3.8025   -9.6418    0.0000 O   0  0
   -3.5261   -8.1666    0.0000 C   0  0
   -4.6651   -7.1906    0.0000 O   0  0
   -2.1107   -7.6675    0.0000 C   0  0
   -1.8348   -6.1949    0.0000 C   0  0  1  0  0  0
   -0.4810   -5.5489    0.0000 C   0  0  1  0  0  0
    0.8403   -6.2551    0.0000 O   0  0
    0.8906   -7.7551    0.0000 Si  0  0
   -0.3829   -8.5478    0.0000 C   0  0
   -0.4327   -7.0488    0.0000 C   0  0
    2.2143   -8.4624    0.0000 C   0  0
    2.2645   -9.9616    0.0000 C   0  0
    3.4877   -7.6698    0.0000 C   0  0
    3.5376   -9.1687    0.0000 C   0  0
   -0.6928   -4.0817    0.0000 C   0  0  2  0  0  0
    0.3114   -2.9665    0.0000 N   0  0
    1.8032   -3.1233    0.0000 C   0  0
    2.4133   -1.7530    0.0000 N   0  0
    1.2990   -0.7500    0.0000 C   0  0
    1.2990    0.7500    0.0000 C   0  0
    2.5972    1.5031    0.0000 N   0  0
    2.5951    3.0039    0.0000 C   0  0
    1.2948    3.7517    0.0000 O   0  0
    3.8933    3.7570    0.0000 N   0  0
    3.8912    5.2578    0.0000 C   0  0
    5.1876    6.0124    0.0000 C   0  0
    5.1824    7.5124    0.0000 C   0  0
    3.8807    8.2579    0.0000 C   0  0
    2.5843    7.5034    0.0000 C   0  0
    2.5895    6.0034    0.0000 C   0  0
    0.0000    1.5000    0.0000 N   0  0
   -1.2990    0.7500    0.0000 C   0  0
   -1.2990   -0.7500    0.0000 N   0  0
    0.0000   -1.5000    0.0000 C   0  0
   -2.1519   -3.7886    0.0000 O   0  0
   -2.8675   -5.1069    0.0000 C   0  0  2  0  0  0
   -4.3533   -5.2996    0.0000 C   0  0
   -5.2654   -4.1077    0.0000 N   0  0
   -6.7537   -4.3007    0.0000 C   0  0
   -7.3300   -5.6856    0.0000 O   0  0
   -7.6658   -3.1088    0.0000 N   0  0
   -9.1533   -3.3017    0.0000 C   0  0
  1  2  1  0
  2  3  1  0
  3  4  1  0
  4  5  2  0
  4  6  1  0
  7  6  1  6
  7  8  1  0
  8  9  1  6
  9 10  1  0
 10 11  1  0
 10 12  1  0
 10 13  1  0
 13 14  1  0
 13 15  1  0
 13 16  1  0
  8 17  1  0
 17 18  1  1
 18 19  1  0
 19 20  2  0
 20 21  1  0
 21 22  2  0
 22 23  1  0
 23 24  1  0
 24 25  2  0
 24 26  1  0
 26 27  1  0
 27 28  2  0
 28 29  1  0
 29 30  2  0
 30 31  1  0
 31 32  2  0
 32 27  1  0
 22 33  1  0
 33 34  2  0
 34 35  1  0
 35 36  2  0
 36 21  1  0
 36 18  1  0
 17 37  1  0
 37 38  1  0
 38  7  1  0
 38 39  1  1
 39 40  1  0
 40 41  1  0
 41 42  2  0
 41 43  1  0
 43 44  1  0
M  END
> <Smiles>
CCOC(=O)C[C@H]1[C@@H](O[Si](C)(C)C(C)(C)C)[C@H](n2cnc3c(NC(=O)Nc4ccccc4)ncnc32)O[C@@H]1CNC(=O)NC

> <ID>
CHEMBL1076310

> <standard_value>
5.19

> <IC50_uM>
0.00519

> <Activity>
Yes

> <pIC50>
8.284832642

> <BCI>
1

$$$$

  SciTegic03012415362D

 21 23  0  0  0  0            999 V2000
    7.7802    3.0211    0.0000 C   0  0
    7.7876    1.5211    0.0000 O   0  0
    6.4920    0.7636    0.0000 C   0  0
    6.4972   -0.7364    0.0000 C   0  0
    5.2007   -1.4909    0.0000 C   0  0
    3.8990   -0.7455    0.0000 C   0  0
    2.6003   -1.4977    0.0000 N   0  0
    2.6030   -2.9977    0.0000 C   0  0
    1.2990   -0.7500    0.0000 C   0  0
    1.2990    0.7500    0.0000 N   0  0
    0.0000    1.5000    0.0000 C   0  0
    0.0000    3.0000    0.0000 Cl  0  0
   -1.2990    0.7500    0.0000 N   0  0
   -1.2990   -0.7500    0.0000 C   0  0
   -2.4133   -1.7530    0.0000 C   0  0
   -1.8032   -3.1233    0.0000 N   0  0
   -0.3114   -2.9665    0.0000 N   0  0
    0.6924   -4.0811    0.0000 C   0  0
    0.0000   -1.5000    0.0000 C   0  0
    3.8939    0.7546    0.0000 C   0  0
    5.1903    1.5091    0.0000 C   0  0
  1  2  1  0
  2  3  1  0
  3  4  2  0
  4  5  1  0
  5  6  2  0
  6  7  1  0
  7  8  1  0
  7  9  1  0
  9 10  2  0
 10 11  1  0
 11 12  1  0
 11 13  2  0
 13 14  1  0
 14 15  1  0
 15 16  2  0
 16 17  1  0
 17 18  1  0
 17 19  1  0
 19  9  1  0
 19 14  2  0
  6 20  1  0
 20 21  2  0
 21  3  1  0
M  END
> <Smiles>
COc1ccc(N(C)c2nc(Cl)nc3cnn(C)c23)cc1

> <ID>
CHEMBL4875613

> <standard_value>
8.76

> <IC50_uM>
0.00876

> <Activity>
Yes

> <pIC50>
8.057495894

> <BCI>
1

$$$$

  SciTegic03012415362D

 34 37  0  0  0  0            999 V2000
    3.8983   -0.7459    0.0000 C   0  0
    2.6003   -1.4977    0.0000 O   0  0
    1.2990   -0.7500    0.0000 C   0  0
    1.2990    0.7500    0.0000 C   0  0
    0.0000    1.5000    0.0000 C   0  0
   -1.2990    0.7500    0.0000 C   0  0
   -1.2990   -0.7500    0.0000 C   0  0
    0.0000   -1.5000    0.0000 C   0  0
   -0.0031   -3.0008    0.0000 O   0  0
   -1.3032   -3.7490    0.0000 C   0  0
   -2.4133    1.7530    0.0000 C   0  0
   -1.8032    3.1233    0.0000 C   0  0
   -2.6838    4.3363    0.0000 C   0  0
   -2.0737    5.7066    0.0000 C   0  0
   -2.9554    6.9201    0.0000 C   0  0
   -2.3421    8.2900    0.0000 O   0  0
   -0.8501    8.4446    0.0000 C   0  0
   -4.4472    6.7633    0.0000 C   0  0
   -5.3318    7.9757    0.0000 O   0  0
   -6.8234    7.8168    0.0000 C   0  0
   -5.0572    5.3930    0.0000 C   0  0
   -4.1756    4.1795    0.0000 C   0  0
   -4.7857    2.8092    0.0000 C   0  0
   -6.2774    2.6524    0.0000 O   0  0
   -3.9040    1.5956    0.0000 N   0  0
   -4.5167    0.2256    0.0000 C   0  0
   -6.0094    0.0702    0.0000 C   0  0
   -6.6221   -1.2999    0.0000 C   0  0
   -8.1149   -1.4552    0.0000 N   0  0
   -8.7276   -2.8253    0.0000 C   0  0
  -10.2203   -2.9807    0.0000 C   0  0
  -10.8327   -4.3500    0.0000 O   0  0
   -0.3115    2.9665    0.0000 C   0  0
    0.6923    4.0811    0.0000 O   0  0
  1  2  1  0
  2  3  1  0
  3  4  2  0
  4  5  1  0
  5  6  2  0
  6  7  1  0
  7  8  2  0
  8  3  1  0
  8  9  1  0
  9 10  1  0
  6 11  1  0
 11 12  2  0
 12 13  1  0
 13 14  2  0
 14 15  1  0
 15 16  1  0
 16 17  1  0
 15 18  2  0
 18 19  1  0
 19 20  1  0
 18 21  1  0
 21 22  2  0
 22 13  1  0
 22 23  1  0
 23 24  2  0
 23 25  1  0
 25 11  1  0
 25 26  1  0
 26 27  1  0
 27 28  1  0
 28 29  1  0
 29 30  1  0
 30 31  1  0
 31 32  1  0
 12 33  1  0
 33  5  1  0
 33 34  2  0
M  END
> <Smiles>
COc1cc2c(cc1OC)-c1c(c3cc(OC)c(OC)cc3c(=O)n1CCCNCCO)C2=O

> <ID>
CHEMBL123496

> <standard_value>
10

> <IC50_uM>
0.01

> <Activity>
Yes

> <pIC50>
8

> <BCI>
1

$$$$

  SciTegic03012415362D

 26 30  0  0  1  0            999 V2000
    2.5228   -3.0436    0.0000 C   0  0
    1.2626   -2.2300    0.0000 C   0  0
    1.2990   -0.7500    0.0000 C   0  0  1  0  0  0
    2.5793    0.0316    0.0000 O   0  0
    1.2990    0.7500    0.0000 C   0  0
    2.5981    1.5000    0.0000 O   0  0
    0.0000    1.5000    0.0000 O   0  0
   -1.2990    0.7500    0.0000 C   0  0
   -1.2990   -0.7500    0.0000 C   0  0
    0.0000   -1.5000    0.0000 C   0  0
    0.0000   -3.0000    0.0000 C   0  0
   -1.2990   -3.7500    0.0000 C   0  0
   -2.5981   -3.0000    0.0000 N   0  0
   -2.5981   -1.5000    0.0000 C   0  0
   -3.8971   -0.7500    0.0000 O   0  0
   -3.7124   -4.0030    0.0000 C   0  0
   -3.1022   -5.3733    0.0000 C   0  0
   -3.7125   -6.7424    0.0000 C   0  0
   -2.8308   -7.9559    0.0000 C   0  0
   -3.4409   -9.3262    0.0000 C   0  0
   -2.5592  -10.5397    0.0000 C   0  0
   -1.0674  -10.3829    0.0000 C   0  0
   -0.4573   -9.0126    0.0000 C   0  0
   -1.3390   -7.7991    0.0000 C   0  0
   -0.7289   -6.4288    0.0000 N   0  0
   -1.6105   -5.2165    0.0000 C   0  0
  1  2  1  0
  2  3  1  0
  3  4  1  1
  3  5  1  0
  5  6  2  0
  5  7  1  0
  7  8  1  0
  8  9  1  0
  9 10  2  0
 10  3  1  0
 10 11  1  0
 11 12  2  0
 12 13  1  0
 13 14  1  0
 14  9  1  0
 14 15  2  0
 13 16  1  0
 16 17  1  0
 17 18  2  0
 18 19  1  0
 19 20  2  0
 20 21  1  0
 21 22  2  0
 22 23  1  0
 23 24  2  0
 24 19  1  0
 24 25  1  0
 25 26  2  0
 26 17  1  0
 26 12  1  0
M  END
> <Smiles>
CC[C@@]1(O)C(=O)OCc2c1cc1n(c2=O)Cc2cc3ccccc3nc2-1

> <ID>
CHEMBL65

> <standard_value>
10

> <IC50_uM>
0.01

> <Activity>
Yes

> <pIC50>
8

> <BCI>
1

$$$$

  SciTegic03012415362D

 26 28  0  0  0  0            999 V2000
    1.2948   -3.7516    0.0000 O   0  0
    2.5951   -3.0039    0.0000 C   0  0
    2.5973   -1.5031    0.0000 O   0  0
    1.2990   -0.7500    0.0000 C   0  0
    1.2990    0.7500    0.0000 C   0  0
    0.0000    1.5000    0.0000 C   0  0
   -1.2990    0.7500    0.0000 C   0  0
   -1.2990   -0.7500    0.0000 N   0  0
    0.0000   -1.5000    0.0000 C   0  0
    3.8933   -3.7570    0.0000 C   0  0
    5.1925   -3.0070    0.0000 C   0  0
    6.4915   -3.7571    0.0000 C   0  0
    6.4915   -5.2571    0.0000 C   0  0
    5.1924   -6.0070    0.0000 C   0  0
    3.8934   -5.2570    0.0000 C   0  0
    2.5952   -6.0101    0.0000 N   0  0
    2.5973   -7.5109    0.0000 C   0  0
    1.3009   -8.2655    0.0000 C   0  0
    1.3061   -9.7655    0.0000 C   0  0
    2.6078  -10.5110    0.0000 N   0  0
    3.9042   -9.7565    0.0000 C   0  0
    5.2065  -10.5024    0.0000 C   0  0
    5.2127  -12.0024    0.0000 F   0  0
    6.5027   -9.7475    0.0000 F   0  0
    6.5085  -11.2473    0.0000 F   0  0
    3.8990   -8.2565    0.0000 C   0  0
  1  2  2  0
  2  3  1  0
  3  4  1  0
  4  5  2  0
  5  6  1  0
  6  7  2  0
  7  8  1  0
  8  9  2  0
  9  4  1  0
  2 10  1  0
 10 11  2  0
 11 12  1  0
 12 13  2  0
 13 14  1  0
 14 15  2  0
 15 10  1  0
 15 16  1  0
 16 17  1  0
 17 18  2  0
 18 19  1  0
 19 20  2  0
 20 21  1  0
 21 22  1  0
 22 23  1  0
 22 24  1  0
 22 25  1  0
 21 26  2  0
 26 17  1  0
M  END
> <Smiles>
O=C(Oc1cccnc1)c1ccccc1Nc1ccnc(C(F)(F)F)c1

> <ID>
CHEMBL187754

> <standard_value>
10

> <IC50_uM>
0.01

> <Activity>
Yes

> <pIC50>
8

> <BCI>
1

$$$$

  SciTegic03012415362D

 30 34  0  0  0  0            999 V2000
    2.5981   -1.5000    0.0000 Cl  0  0
    1.2990   -0.7500    0.0000 C   0  0
    1.2990    0.7500    0.0000 N   0  0
    0.0000    1.5000    0.0000 C   0  0
    0.0000    3.0000    0.0000 Cl  0  0
   -1.2990    0.7500    0.0000 C   0  0
   -2.7248    1.2135    0.0000 N   0  0
   -3.6065    0.0000    0.0000 C   0  0
   -2.7248   -1.2135    0.0000 N   0  0
   -3.1904   -2.6376    0.0000 C   0  0
   -4.6588   -2.9478    0.0000 C   0  0
   -5.6590   -1.8298    0.0000 C   0  0
   -7.1272   -2.1369    0.0000 C   0  0
   -7.5954   -3.5619    0.0000 C   0  0
   -6.5954   -4.6799    0.0000 C   0  0
   -5.1271   -4.3729    0.0000 C   0  0
   -4.1289   -5.4936    0.0000 C   0  0
   -4.5994   -6.9187    0.0000 N   0  0
   -6.0221   -7.3521    0.0000 C   0  0
   -6.0320   -8.8521    0.0000 N   0  0
   -4.6092   -9.3245    0.0000 C   0  0
   -4.0082  -10.6989    0.0000 C   0  0
   -4.8979  -11.9065    0.0000 Cl  0  0
   -2.5175  -10.8655    0.0000 N   0  0
   -1.6278   -9.6579    0.0000 C   0  0
   -0.1371   -9.8245    0.0000 Cl  0  0
   -2.2288   -8.2835    0.0000 N   0  0
   -3.7195   -8.1169    0.0000 C   0  0
   -1.2990   -0.7500    0.0000 C   0  0
    0.0000   -1.5000    0.0000 N   0  0
  1  2  1  0
  2  3  2  0
  3  4  1  0
  4  5  1  0
  4  6  2  0
  6  7  1  0
  7  8  2  0
  8  9  1  0
  9 10  1  0
 10 11  1  0
 11 12  2  0
 12 13  1  0
 13 14  2  0
 14 15  1  0
 15 16  2  0
 16 11  1  0
 16 17  1  0
 17 18  1  0
 18 19  1  0
 19 20  2  0
 20 21  1  0
 21 22  2  0
 22 23  1  0
 22 24  1  0
 24 25  2  0
 25 26  1  0
 25 27  1  0
 27 28  2  0
 28 21  1  0
 28 18  1  0
  9 29  1  0
 29  6  1  0
 29 30  2  0
 30  2  1  0
M  END
> <Smiles>
Clc1nc(Cl)c2ncn(Cc3ccccc3Cn3cnc4c(Cl)nc(Cl)nc43)c2n1

> <ID>
CHEMBL397699

> <standard_value>
10

> <IC50_uM>
0.01

> <Activity>
Yes

> <pIC50>
8

> <BCI>
1

$$$$

  SciTegic03012415362D

 26 29  0  0  0  0            999 V2000
    2.9076    1.7290    0.0000 C   0  0
    4.0317    0.7359    0.0000 C   0  0
    5.4979    1.0528    0.0000 N   0  0
    6.2524   -0.2436    0.0000 N   0  0
    7.7454   -0.3953    0.0000 C   0  0
    8.7081    0.7486    0.0000 C   0  0
   10.1848    0.4851    0.0000 C   0  0
   10.6949   -0.9254    0.0000 C   0  0
    9.7284   -2.0725    0.0000 C   0  0
   10.2386   -3.4831    0.0000 Cl  0  0
    8.2517   -1.8091    0.0000 C   0  0
    5.2526   -1.3618    0.0000 C   0  0
    5.4581   -2.3404    0.0000 O   0  0
    3.8990   -0.7455    0.0000 C   0  0
    2.6003   -1.4977    0.0000 C   0  0
    2.6015   -2.9986    0.0000 C   0  0
    3.9027   -3.7449    0.0000 C   0  0
    4.7673   -3.2424    0.0000 O   0  0
    3.9070   -5.2449    0.0000 C   0  0
    2.6101   -5.9986    0.0000 C   0  0
    1.3089   -5.2523    0.0000 C   0  0
    0.0120   -6.0060    0.0000 C   0  0
   -1.2892   -5.2597    0.0000 C   0  0
   -1.2934   -3.7597    0.0000 C   0  0
    0.0035   -3.0060    0.0000 C   0  0
    1.3046   -3.7523    0.0000 C   0  0
  1  2  1  0
  2  3  2  0
  3  4  1  0
  4  5  1  0
  5  6  2  0
  6  7  1  0
  7  8  2  0
  8  9  1  0
  9 10  1  0
  9 11  2  0
 11  5  1  0
  4 12  1  0
 12 13  2  0
 12 14  1  0
 14  2  1  0
 14 15  2  0
 15 16  1  0
 16 17  2  0
 17 18  1  0
 17 19  1  0
 19 20  2  0
 20 21  1  0
 21 22  2  0
 22 23  1  0
 23 24  2  0
 24 25  1  0
 25 26  2  0
 26 16  1  0
 26 21  1  0
M  END
> <Smiles>
CC1=NN(c2cccc(Cl)c2)C(=O)/C1=C\c1c(O)ccc2ccccc12

> <ID>
CHEMBL1812992

> <standard_value>
10

> <IC50_uM>
0.01

> <Activity>
Yes

> <pIC50>
8

> <BCI>
1

$$$$

  SciTegic03012415362D

 30 34  0  0  1  0            999 V2000
    2.6018   -5.9994    0.0000 C   0  0
    3.9008   -5.2492    0.0000 O   0  0
    3.9014   -3.7484    0.0000 C   0  0
    2.6012   -3.0004    0.0000 C   0  0
    2.5987   -1.5004    0.0000 C   0  0
    1.2990   -0.7500    0.0000 C   0  0  2  0  0  0
    1.2990    0.7500    0.0000 C   0  0
    2.5981    1.5000    0.0000 C   0  0
    2.5981    3.0000    0.0000 C   0  0
    1.2990    3.7500    0.0000 C   0  0
    0.0000    3.0000    0.0000 C   0  0
    0.0000    1.5000    0.0000 C   0  0
   -1.2990    0.7500    0.0000 C   0  0  2  0  0  0
   -2.5981    1.5000    0.0000 O   0  0
   -1.2990   -0.7500    0.0000 C   0  0  1  0  0  0
   -2.4133   -1.7530    0.0000 C   0  0
   -1.8032   -3.1233    0.0000 O   0  0
   -0.3114   -2.9665    0.0000 C   0  0
    0.6924   -4.0811    0.0000 O   0  0
    0.0000   -1.5000    0.0000 C   0  0  2  0  0  0
    1.6104    5.2165    0.0000 O   0  0
    3.1022    5.3733    0.0000 C   0  0
    3.7123    4.0030    0.0000 O   0  0
    3.8967   -0.7484    0.0000 C   0  0
    5.1969   -1.4963    0.0000 C   0  0
    6.4939   -0.7411    0.0000 O   0  0
    6.4894    0.7589    0.0000 C   0  0
    5.1993   -2.9963    0.0000 C   0  0
    6.4987   -3.7473    0.0000 O   0  0
    6.4990   -5.2473    0.0000 C   0  0
  1  2  1  0
  2  3  1  0
  3  4  2  0
  4  5  1  0
  6  5  1  1
  6  7  1  0
  7  8  2  0
  8  9  1  0
  9 10  2  0
 10 11  1  0
 11 12  2  0
 12  7  1  0
 12 13  1  0
 13 14  1  1
 13 15  1  0
 15 16  1  6
 16 17  1  0
 17 18  1  0
 18 19  2  0
 20 18  1  1
 20  6  1  0
 20 15  1  0
 10 21  1  0
 21 22  1  0
 22 23  1  0
 23  9  1  0
  5 24  2  0
 24 25  1  0
 25 26  1  0
 26 27  1  0
 25 28  2  0
 28  3  1  0
 28 29  1  0
 29 30  1  0
M  END
> <Smiles>
COc1cc([C@@H]2c3cc4c(cc3[C@H](O)[C@H]3COC(=O)[C@H]23)OCO4)cc(OC)c1OC

> <ID>
CHEMBL61

> <standard_value>
10

> <IC50_uM>
0.01

> <Activity>
Yes

> <pIC50>
8

> <BCI>
1

$$$$

  SciTegic03012415362D

 36 37  0  0  1  0            999 V2000
    4.5992    5.8995    0.0000 C   0  0
    3.4865    4.8936    0.0000 C   0  0
    3.8005    3.4260    0.0000 C   0  0  2  0  0  0
    5.2278    2.9648    0.0000 C   0  0
    2.6807    2.4138    0.0000 C   0  0  1  0  0  0
    1.4672    3.2954    0.0000 N   0  0
    0.0000    3.6073    0.0000 C   0  0
    0.0000    5.1073    0.0000 O   0  0
   -1.4672    3.2954    0.0000 C   0  0  1  0  0  0
   -0.5169    3.3439    0.0000 C   0  0
    0.9545    3.7107    0.0000 S   0  0
    2.3311    3.0315    0.0000 S   0  0
    3.0275    1.6609    0.0000 C   0  0
    2.7162    0.1697    0.0000 C   0  0
    1.4607   -0.6414    0.0000 C   0  0
    1.5956   -2.1659    0.0000 C   0  0
    0.7500   -3.5285    0.0000 C   0  0  2  0  0  0
   -0.7500   -3.5285    0.0000 C   0  0
   -2.1203   -2.9184    0.0000 C   0  0
   -3.0020   -4.1319    0.0000 O   0  0
   -3.1240   -1.8037    0.0000 N   0  0
   -3.5875   -0.3771    0.0000 C   0  0  2  0  0  0
   -5.0884   -0.5378    0.0000 C   0  0
   -5.6970   -1.9097    0.0000 C   0  0
   -7.1893   -2.0696    0.0000 S   0  0  3  0  0  0
   -8.0730   -0.8575    0.0000 C   0  0
   -7.7975   -3.4407    0.0000 O   0  0
   -3.4308    1.1147    0.0000 C   0  0
   -4.8573    1.5782    0.0000 O   0  0
   -2.6808    2.4137    0.0000 N   0  0
    2.1203   -2.9184    0.0000 O   0  0
    3.1240   -1.8036    0.0000 C   0  0
    4.4231   -2.5536    0.0000 O   0  0
    3.5875   -0.3771    0.0000 C   0  0
    3.4307    1.1147    0.0000 C   0  0  2  0  0  0
    4.8573    1.5782    0.0000 O   0  0
  1  2  1  0
  2  3  1  0
  3  4  1  6
  3  5  1  0
  5  6  1  6
  6  7  1  0
  7  8  2  0
  7  9  1  0
  9 10  1  6
 10 11  1  0
 11 12  1  0
 12 13  1  0
 13 14  1  0
 14 15  1  0
 15 16  2  0
 17 16  1  6
 17 18  1  0
 18 19  1  0
 19 20  2  0
 19 21  1  0
 21 22  1  0
 22 23  1  6
 23 24  1  0
 24 25  1  0
 25 26  1  4
 25 27  2  0
 22 28  1  0
 28 29  2  0
 28 30  1  0
 30  9  1  0
 17 31  1  0
 31 32  1  0
 32 33  2  0
 32 34  1  0
 34 35  1  0
 35  5  1  0
 35 36  1  1
M  END
> <Smiles>
CC[C@H](C)[C@H]1NC(=O)[C@H]2CSSCC/C=C/[C@H](CC(=O)N[C@H](CC[S+](C)[O-])C(=O)N2)OC(=O)C[C@@H]1O

> <ID>
CHEMBL1835659

> <standard_value>
10

> <IC50_uM>
0.01

> <Activity>
Yes

> <pIC50>
8

> <BCI>
1

$$$$

  SciTegic03012415362D

 34 38  0  0  0  0            999 V2000
    2.5951   -3.0031    0.0000 C   0  0
    2.5973   -1.5031    0.0000 O   0  0
    1.2990   -0.7500    0.0000 C   0  0
    1.2990    0.7500    0.0000 C   0  0
    0.0000    1.5000    0.0000 N   0  0
   -1.2990    0.7500    0.0000 C   0  0
   -1.2990   -0.7500    0.0000 C   0  0
    0.0000   -1.5000    0.0000 C   0  0
   -2.7248   -1.2135    0.0000 C   0  0
   -3.1882   -2.6402    0.0000 O   0  0
   -3.6065    0.0000    0.0000 C   0  0
   -2.7248    1.2135    0.0000 C   0  0
   -3.3339    2.5831    0.0000 N   0  0
   -2.4537    3.7988    0.0000 C   0  0
   -3.0656    5.1692    0.0000 C   0  0
   -2.1854    6.3848    0.0000 C   0  0
   -2.7972    7.7553    0.0000 N   0  0
   -1.9193    8.9716    0.0000 C   0  0
   -2.5336   10.3400    0.0000 C   0  0
   -4.0259   10.4923    0.0000 C   0  0
   -4.6402   11.8607    0.0000 O   0  0
   -4.9038    9.2761    0.0000 C   0  0
   -4.2896    7.9076    0.0000 C   0  0
   -4.8257    2.7399    0.0000 C   0  0
   -5.4358    4.1102    0.0000 O   0  0
   -5.7073    1.5263    0.0000 C   0  0
   -7.1991    1.6831    0.0000 C   0  0
   -8.0808    0.4696    0.0000 C   0  0
   -9.5737    0.6234    0.0000 N   0  3
  -10.4537   -0.5914    0.0000 O   0  0
  -10.1862    1.9927    0.0000 O   0  5
   -7.4707   -0.9007    0.0000 C   0  0
   -5.9789   -1.0575    0.0000 C   0  0
   -5.0972    0.1560    0.0000 C   0  0
  1  2  1  0
  2  3  1  0
  3  4  2  0
  4  5  1  0
  5  6  2  0
  6  7  1  0
  7  8  2  0
  8  3  1  0
  7  9  1  0
  9 10  2  0
  9 11  1  0
 11 12  2  0
 12  6  1  0
 12 13  1  0
 13 14  1  0
 14 15  1  0
 15 16  1  0
 16 17  1  0
 17 18  1  0
 18 19  1  0
 19 20  1  0
 20 21  1  0
 20 22  1  0
 22 23  1  0
 23 17  1  0
 13 24  1  0
 24 25  2  0
 24 26  1  0
 26 27  2  0
 27 28  1  0
 28 29  1  0
 29 30  2  0
 29 31  1  0
 28 32  2  0
 32 33  1  0
 33 34  2  0
 34 11  1  0
 34 26  1  0
M  CHG  2  29   1  31  -1
M  END
> <Smiles>
COc1cnc2c(c1)C(=O)c1c-2n(CCCN2CCC(O)CC2)c(=O)c2cc([N+](=O)[O-])ccc12.Cl

> <ID>
CHEMBL3126931

> <standard_value>
10

> <IC50_uM>
0.01

> <Activity>
Yes

> <pIC50>
8

> <BCI>
1

> <RemovedSalts>
HCl

$$$$

  SciTegic03012415362D

 25 27  0  0  0  0            999 V2000
    3.8983   -0.7459    0.0000 C   0  0
    2.6003   -1.4977    0.0000 O   0  0
    1.2990   -0.7500    0.0000 C   0  0
    1.2990    0.7500    0.0000 C   0  0
    0.0000    1.5000    0.0000 C   0  0
   -1.2990    0.7500    0.0000 C   0  0
   -1.2990   -0.7500    0.0000 C   0  0
   -2.5981   -1.5000    0.0000 N   0  0
    0.0000   -1.5000    0.0000 C   0  0
    0.0031   -3.0008    0.0000 O   0  0
    1.3032   -3.7490    0.0000 C   0  0
   -2.4133    1.7530    0.0000 C   0  0
   -3.8805    1.4410    0.0000 O   0  0
   -1.8032    3.1233    0.0000 C   0  0
   -2.5497    4.4223    0.0000 C   0  0
   -4.0505    4.4264    0.0000 C   0  0
   -4.7997    5.7259    0.0000 C   0  0
   -6.2997    5.7270    0.0000 C   0  0
   -7.0488    7.0265    0.0000 C   0  0
   -7.0506    4.4284    0.0000 C   0  0
   -8.5506    4.4294    0.0000 O   0  0
   -6.3015    3.1289    0.0000 C   0  0
   -7.0523    1.8303    0.0000 C   0  0
   -4.8015    3.1279    0.0000 C   0  0
   -0.3115    2.9665    0.0000 C   0  0
  1  2  1  0
  2  3  1  0
  3  4  2  0
  4  5  1  0
  5  6  2  0
  6  7  1  0
  7  8  1  0
  7  9  2  0
  9  3  1  0
  9 10  1  0
 10 11  1  0
  6 12  1  0
 12 13  2  0
 12 14  1  0
 14 15  2  0
 15 16  1  0
 16 17  2  0
 17 18  1  0
 18 19  1  0
 18 20  2  0
 20 21  1  0
 20 22  1  0
 22 23  1  0
 22 24  2  0
 24 16  1  0
 14 25  1  0
 25  5  1  0
M  END
> <Smiles>
COc1cc2c(c(N)c1OC)C(=O)/C(=C\c1cc(C)c(O)c(C)c1)C2

> <ID>
CHEMBL562718

> <standard_value>
10

> <IC50_uM>
0.01

> <Activity>
Yes

> <pIC50>
8

> <BCI>
1

$$$$

  SciTegic03012415362D

 37 41  0  0  1  0            999 V2000
    3.8892   -8.2560    0.0000 C   0  0
    5.1893   -7.5079    0.0000 O   0  0
    5.1924   -6.0070    0.0000 C   0  0
    3.8934   -5.2570    0.0000 C   0  0
    3.8933   -3.7570    0.0000 C   0  0
    2.5951   -3.0039    0.0000 C   0  0
    2.5973   -1.5031    0.0000 C   0  0
    1.2990   -0.7500    0.0000 C   0  0
    1.2990    0.7500    0.0000 C   0  0
    0.0000    1.5000    0.0000 C   0  0
    0.0000    3.0000    0.0000 O   0  0
   -1.2990    0.7500    0.0000 C   0  0
   -1.2990   -0.7500    0.0000 C   0  0
    0.0000   -1.5000    0.0000 C   0  0
   -2.5981   -1.5000    0.0000 C   0  0
   -3.8971   -0.7500    0.0000 C   0  0  2  0  0  0
   -5.1962   -1.5000    0.0000 C   0  0
   -3.8798   -2.2191    0.0000 C   0  0
   -6.5124   -2.2193    0.0000 C   0  0
   -6.4952   -0.7500    0.0000 C   0  0  2  0  0  0
   -7.7942   -1.5000    0.0000 O   0  0
   -6.4952    0.7500    0.0000 C   0  0
   -5.1962    1.5000    0.0000 C   0  0
   -3.8971    0.7500    0.0000 C   0  0  2  0  0  0
   -3.8971    2.2500    0.0000 C   0  0
   -2.5981    1.5000    0.0000 O   0  0
    5.1925   -3.0070    0.0000 C   0  0
    6.4915   -3.7571    0.0000 C   0  0
    7.9173   -3.2936    0.0000 N   0  0
    8.7989   -4.5071    0.0000 C   0  0
    7.9172   -5.7206    0.0000 C   0  0
    8.3828   -7.1447    0.0000 C   0  0
    9.8512   -7.4549    0.0000 C   0  0
   10.3177   -8.8815    0.0000 C   0  0
   11.7853   -9.1915    0.0000 C   0  0
    9.3157   -9.9977    0.0000 C   0  0
    6.4915   -5.2571    0.0000 C   0  0
  1  2  1  0
  2  3  1  0
  3  4  2  0
  4  5  1  0
  5  6  1  0
  6  7  2  0
  7  8  1  0
  8  9  2  0
  9 10  1  0
 10 11  1  0
 10 12  2  0
 12 13  1  0
 13 14  2  0
 14  8  1  0
 13 15  1  0
 16 15  1  6
 16 17  1  0
 17 18  1  0
 17 19  1  0
 17 20  1  0
 20 21  1  6
 20 22  1  0
 22 23  1  0
 23 24  1  0
 24 16  1  0
 24 25  1  6
 24 26  1  0
 26 12  1  0
  5 27  2  0
 27 28  1  0
 28 29  1  0
 29 30  1  0
 30 31  2  0
 31 32  1  0
 32 33  1  0
 33 34  2  0
 34 35  1  0
 34 36  1  0
 31 37  1  0
 37  3  1  0
 37 28  2  0
M  END
> <Smiles>
COc1cc(/C=C/c2cc(O)c3c(c2)C[C@@H]2C(C)(C)[C@H](O)CC[C@@]2(C)O3)cc2[nH]cc(CC=C(C)C)c12

> <ID>
CHEMBL3233621

> <standard_value>
10

> <IC50_uM>
0.01

> <Activity>
Yes

> <pIC50>
8

> <BCI>
1

$$$$

  SciTegic03012415362D

 32 33  0  0  1  0            999 V2000
   -5.8573   -3.4686    0.0000 C   0  0
   -5.1408   -2.1508    0.0000 C   0  0
   -5.9243   -0.8716    0.0000 C   0  0
   -3.6400   -2.1100    0.0000 C   0  0  1  0  0  0
   -2.7700   -3.5200    0.0000 N   0  0
   -1.3000   -4.2000    0.0000 C   0  0
   -1.5134   -5.6847    0.0000 O   0  0
    0.3800   -3.9500    0.0000 C   0  0
    1.0600   -2.6100    0.0000 C   0  0  1  0  0  0
    0.5100   -1.7100    0.0000 C   0  0
    1.1200   -0.8600    0.0000 C   0  0
    1.1200    0.1700    0.0000 C   0  0
    0.1700    0.8900    0.0000 C   0  0
   -0.7300    0.2000    0.0000 S   0  0
   -2.2400    0.4400    0.0000 S   0  0
   -2.2400    1.3600    0.0000 C   0  0
   -3.5000    1.7400    0.0000 C   0  0  1  0  0  0
   -4.3000    0.3600    0.0000 N   0  0
   -3.0600   -0.8000    0.0000 C   0  0
   -1.5902   -0.5006    0.0000 O   0  0
   -3.5000    2.9300    0.0000 C   0  0
   -4.7612    3.7421    0.0000 O   0  0
   -1.6300    3.7800    0.0000 N   0  0
    0.9600    3.7800    0.0000 C   0  0  2  0  0  0
    1.7297    5.0675    0.0000 C   0  0
    1.8200    2.1800    0.0000 C   0  0
    1.0503    0.8925    0.0000 O   0  0
    3.3500    2.1800    0.0000 N   0  0
    4.4000    0.5600    0.0000 C   0  0
    4.2200   -1.1700    0.0000 C   0  0
    5.5286   -1.9032    0.0000 O   0  0
    2.7300   -2.3100    0.0000 O   0  0
  1  2  1  0
  2  3  1  0
  4  2  1  6
  4  5  1  0
  5  6  1  0
  6  7  2  0
  6  8  1  0
  9  8  1  1
  9 10  1  0
 10 11  2  0
 11 12  1  0
 12 13  1  0
 13 14  1  0
 14 15  1  0
 15 16  1  0
 17 16  1  1
 17 18  1  0
 18 19  1  0
 19  4  1  0
 19 20  2  0
 17 21  1  0
 21 22  2  0
 21 23  1  0
 23 24  1  0
 24 25  1  6
 24 26  1  0
 26 27  2  0
 26 28  1  0
 28 29  1  0
 29 30  1  0
 30 31  2  0
 30 32  1  0
 32  9  1  0
M  END
> <Smiles>
CC(C)[C@H]1NC(=O)C[C@H]2/C=C/CCSSC[C@@H](NC1=O)C(=O)N[C@H](C)C(=O)NCC(=O)O2

> <ID>
CHEMBL4798082

> <standard_value>
10

> <IC50_uM>
0.01

> <Activity>
Yes

> <pIC50>
8

> <BCI>
1

$$$$

  SciTegic03012415362D

 33 34  0  0  1  0            999 V2000
    6.8594   -0.2862    0.0000 C   0  0
    5.8760    0.8464    0.0000 C   0  0
    4.4000    0.5600    0.0000 C   0  0
    4.2200   -1.1700    0.0000 N   0  0
    2.7300   -2.3100    0.0000 C   0  0
    3.3354   -3.6824    0.0000 O   0  0
    1.0600   -2.6100    0.0000 C   0  0  1  0  0  0
    0.5100   -1.7100    0.0000 C   0  0
    1.1200   -0.8600    0.0000 S   0  0
    1.1200    0.1700    0.0000 S   0  0
    0.1700    0.8900    0.0000 C   0  0
   -0.7300    0.2000    0.0000 C   0  0
   -2.2400    0.4400    0.0000 C   0  0
   -2.2400    1.3600    0.0000 C   0  0
   -3.5000    1.7400    0.0000 C   0  0  2  0  0  0
   -4.3000    0.3600    0.0000 C   0  0
   -3.0600   -0.8000    0.0000 C   0  0
   -1.5902   -0.5006    0.0000 O   0  0
   -3.6400   -2.1100    0.0000 N   0  0
   -2.7700   -3.5200    0.0000 C   0  0  2  0  0  0
   -3.7604   -4.6549    0.0000 C   0  0
   -5.2325   -4.3670    0.0000 C   0  0
   -3.2741   -6.0739    0.0000 C   0  0
   -1.3000   -4.2000    0.0000 C   0  0
   -1.5134   -5.6847    0.0000 O   0  0
    0.3800   -3.9500    0.0000 N   0  0
   -3.5000    2.9300    0.0000 O   0  0
   -1.6300    3.7800    0.0000 C   0  0
   -1.9475    5.2460    0.0000 O   0  0
    0.9600    3.7800    0.0000 C   0  0
    1.8200    2.1800    0.0000 N   0  0
    3.3500    2.1800    0.0000 C   0  0
    4.0663    3.4979    0.0000 O   0  0
  1  2  1  0
  2  3  2  0
  3  4  1  0
  4  5  1  0
  5  6  2  0
  5  7  1  0
  7  8  1  6
  8  9  1  0
  9 10  1  0
 10 11  1  0
 11 12  1  0
 12 13  1  0
 13 14  2  0
 15 14  1  6
 15 16  1  0
 16 17  1  0
 17 18  2  0
 17 19  1  0
 19 20  1  0
 20 21  1  1
 21 22  1  0
 21 23  1  0
 20 24  1  0
 24 25  2  0
 24 26  1  0
 26  7  1  0
 15 27  1  0
 27 28  1  0
 28 29  2  0
 28 30  1  0
 30 31  1  0
 31 32  1  0
 32  3  1  0
 32 33  2  0
M  END
> <Smiles>
C/C=C1\NC(=O)[C@H]2CSSCC/C=C/[C@H](CC(=O)N[C@H](C(C)C)C(=O)N2)OC(=O)CNC1=O

> <ID>
CHEMBL4776416

> <standard_value>
10

> <IC50_uM>
0.01

> <Activity>
Yes

> <pIC50>
8

> <BCI>
1

$$$$

  SciTegic03012415362D

 27 30  0  0  0  0            999 V2000
    3.8912   -5.2570    0.0000 N   0  0
    3.8933   -3.7570    0.0000 C   0  0
    2.5951   -3.0039    0.0000 C   0  0
    2.5973   -1.5031    0.0000 C   0  0
    1.2990   -0.7500    0.0000 N   0  0
    1.2990    0.7500    0.0000 C   0  0
    0.0000    1.5000    0.0000 C   0  0
   -1.2990    0.7500    0.0000 C   0  0
   -2.5981    1.5000    0.0000 C   0  0
   -3.8971    0.7500    0.0000 C   0  0
   -3.8971   -0.7500    0.0000 C   0  0
   -5.1953   -1.5031    0.0000 N   0  3
   -5.1932   -3.0031    0.0000 O   0  0
   -6.4957   -0.7554    0.0000 O   0  5
   -2.5981   -1.5000    0.0000 C   0  0
   -1.2990   -0.7500    0.0000 C   0  0
    0.0000   -1.5000    0.0000 C   0  0
    0.0000   -3.0000    0.0000 O   0  0
    0.3114    2.9665    0.0000 C   0  0
   -0.6924    4.0811    0.0000 O   0  0
    1.8032    3.1233    0.0000 C   0  0
    2.6837    4.3363    0.0000 C   0  0
    4.1755    4.1795    0.0000 C   0  0
    5.0572    5.3931    0.0000 Br  0  0
    4.7856    2.8092    0.0000 C   0  0
    3.9040    1.5957    0.0000 C   0  0
    2.4133    1.7530    0.0000 C   0  0
  1  2  1  0
  2  3  1  0
  3  4  1  0
  4  5  1  0
  5  6  1  0
  6  7  2  0
  7  8  1  0
  8  9  2  0
  9 10  1  0
 10 11  2  0
 11 12  1  0
 12 13  2  0
 12 14  1  0
 11 15  1  0
 15 16  2  0
 16  8  1  0
 16 17  1  0
 17  5  1  0
 17 18  2  0
  7 19  1  0
 19 20  2  0
 19 21  1  0
 21 22  2  0
 22 23  1  0
 23 24  1  0
 23 25  2  0
 25 26  1  0
 26 27  2  0
 27 21  1  0
 27  6  1  0
M  CHG  2  12   1  14  -1
M  END
> <Smiles>
NCCCn1c2c(c3ccc([N+](=O)[O-])cc3c1=O)C(=O)c1cc(Br)ccc1-2

> <ID>
CHEMBL388921

> <standard_value>
11

> <IC50_uM>
0.011

> <Activity>
Yes

> <pIC50>
7.958607315

> <BCI>
1

$$$$

  SciTegic03012415362D

 21 23  0  0  0  0            999 V2000
    7.7802    3.0211    0.0000 C   0  0
    7.7876    1.5211    0.0000 O   0  0
    6.4920    0.7636    0.0000 C   0  0
    6.4972   -0.7364    0.0000 C   0  0
    5.2007   -1.4909    0.0000 C   0  0
    3.8990   -0.7455    0.0000 C   0  0
    2.6003   -1.4977    0.0000 N   0  0
    2.6030   -2.9977    0.0000 C   0  0
    1.2990   -0.7500    0.0000 C   0  0
    1.2990    0.7500    0.0000 N   0  0
    0.0000    1.5000    0.0000 C   0  0
    0.0000    3.0000    0.0000 C   0  0
   -1.2990    0.7500    0.0000 N   0  0
   -1.2990   -0.7500    0.0000 C   0  0
    0.0000   -1.5000    0.0000 C   0  0
   -0.3114   -2.9665    0.0000 C   0  0
   -1.8032   -3.1233    0.0000 C   0  0  3  0  0  0
   -2.5532   -4.4223    0.0000 C   0  0
   -2.4133   -1.7530    0.0000 N   0  0
    3.8939    0.7546    0.0000 C   0  0
    5.1903    1.5091    0.0000 C   0  0
  1  2  1  0
  2  3  1  0
  3  4  2  0
  4  5  1  0
  5  6  2  0
  6  7  1  0
  7  8  1  0
  7  9  1  0
  9 10  2  0
 10 11  1  0
 11 12  1  0
 11 13  2  0
 13 14  1  0
 14 15  2  0
 15  9  1  0
 15 16  1  0
 16 17  1  0
 17 18  1  4
 17 19  1  0
 19 14  1  0
  6 20  1  0
 20 21  2  0
 21  3  1  0
M  END
> <Smiles>
COc1ccc(N(C)c2nc(C)nc3c2CC(C)N3)cc1.Cl

> <ID>
CHEMBL1277064

> <standard_value>
11.4

> <IC50_uM>
0.0114

> <Activity>
Yes

> <pIC50>
7.943095149

> <BCI>
1

> <RemovedSalts>
HCl

$$$$

  SciTegic03012415362D

 44 47  0  0  1  0            999 V2000
   -5.4941  -11.6152    0.0000 C   0  0
   -5.2179  -10.1409    0.0000 C   0  0
   -3.8025   -9.6418    0.0000 O   0  0
   -3.5261   -8.1666    0.0000 C   0  0
   -4.6651   -7.1906    0.0000 O   0  0
   -2.1107   -7.6675    0.0000 C   0  0
   -1.8348   -6.1949    0.0000 C   0  0  1  0  0  0
   -0.4810   -5.5489    0.0000 C   0  0  1  0  0  0
    0.8403   -6.2551    0.0000 O   0  0
    0.8906   -7.7551    0.0000 Si  0  0
   -0.3829   -8.5478    0.0000 C   0  0
   -0.4327   -7.0488    0.0000 C   0  0
    2.2143   -8.4624    0.0000 C   0  0
    2.2645   -9.9616    0.0000 C   0  0
    3.4877   -7.6698    0.0000 C   0  0
    3.5376   -9.1687    0.0000 C   0  0
   -0.6928   -4.0817    0.0000 C   0  0  2  0  0  0
    0.3114   -2.9665    0.0000 N   0  0
    1.8032   -3.1233    0.0000 C   0  0
    2.4133   -1.7530    0.0000 N   0  0
    1.2990   -0.7500    0.0000 C   0  0
    1.2990    0.7500    0.0000 C   0  0
    2.5972    1.5031    0.0000 N   0  0
    2.5951    3.0039    0.0000 C   0  0
    1.2948    3.7517    0.0000 O   0  0
    3.8933    3.7570    0.0000 N   0  0
    3.8912    5.2578    0.0000 C   0  0
    5.1876    6.0124    0.0000 C   0  0
    5.1824    7.5124    0.0000 C   0  0
    3.8807    8.2579    0.0000 C   0  0
    2.5843    7.5034    0.0000 C   0  0
    2.5895    6.0034    0.0000 C   0  0
    0.0000    1.5000    0.0000 N   0  0
   -1.2990    0.7500    0.0000 C   0  0
   -1.2990   -0.7500    0.0000 N   0  0
    0.0000   -1.5000    0.0000 C   0  0
   -2.1519   -3.7886    0.0000 O   0  0
   -2.8675   -5.1069    0.0000 C   0  0  2  0  0  0
   -4.3533   -5.2996    0.0000 C   0  0
   -5.2654   -4.1077    0.0000 O   0  0
   -6.7537   -4.3007    0.0000 C   0  0
   -7.3300   -5.6856    0.0000 O   0  0
   -7.6658   -3.1088    0.0000 N   0  0
   -9.1533   -3.3017    0.0000 C   0  0
  1  2  1  0
  2  3  1  0
  3  4  1  0
  4  5  2  0
  4  6  1  0
  7  6  1  6
  7  8  1  0
  8  9  1  6
  9 10  1  0
 10 11  1  0
 10 12  1  0
 10 13  1  0
 13 14  1  0
 13 15  1  0
 13 16  1  0
  8 17  1  0
 17 18  1  1
 18 19  1  0
 19 20  2  0
 20 21  1  0
 21 22  2  0
 22 23  1  0
 23 24  1  0
 24 25  2  0
 24 26  1  0
 26 27  1  0
 27 28  2  0
 28 29  1  0
 29 30  2  0
 30 31  1  0
 31 32  2  0
 32 27  1  0
 22 33  1  0
 33 34  2  0
 34 35  1  0
 35 36  2  0
 36 21  1  0
 36 18  1  0
 17 37  1  0
 37 38  1  0
 38  7  1  0
 38 39  1  1
 39 40  1  0
 40 41  1  0
 41 42  2  0
 41 43  1  0
 43 44  1  0
M  END
> <Smiles>
CCOC(=O)C[C@H]1[C@@H](O[Si](C)(C)C(C)(C)C)[C@H](n2cnc3c(NC(=O)Nc4ccccc4)ncnc32)O[C@@H]1COC(=O)NC

> <ID>
CHEMBL1076312

> <standard_value>
11.5

> <IC50_uM>
0.0115

> <Activity>
Yes

> <pIC50>
7.93930216

> <BCI>
1

$$$$

  SciTegic03012415362D

 25 28  0  0  1  0            999 V2000
    5.1996   -1.4928    0.0000 C   0  0
    3.8990   -0.7455    0.0000 C   0  0
    2.6003   -1.4977    0.0000 O   0  0
    1.2990   -0.7500    0.0000 C   0  0
    1.2990    0.7500    0.0000 C   0  0
    0.0000    1.5000    0.0000 C   0  0
   -1.2990    0.7500    0.0000 C   0  0
   -1.2990   -0.7500    0.0000 C   0  0
    0.0000   -1.5000    0.0000 C   0  0
    0.0000   -3.0000    0.0000 O   0  0
   -2.5981    1.5000    0.0000 C   0  0
   -3.8994    0.7522    0.0000 N   0  0
   -3.9034   -0.7478    0.0000 O   0  0
   -2.5981    3.0000    0.0000 C   0  0
   -1.2991    3.7500    0.0000 C   0  0  2  0  0  0
    0.0000    3.0000    0.0000 C   0  0  2  0  0  0
    1.2990    3.7500    0.0000 C   0  0
    1.2990    5.2500    0.0000 C   0  0
    0.0000    6.0000    0.0000 C   0  0  2  0  0  0
    1.2211    6.8711    0.0000 C   0  0
   -0.2851    7.4666    0.0000 C   0  0  1  0  0  0
    0.7318    8.5693    0.0000 O   0  0
   -1.7759    7.6329    0.0000 C   0  0
   -2.3947    6.2665    0.0000 C   0  0
   -1.2991    5.2500    0.0000 C   0  0  1  0  0  0
  1  2  1  0
  2  3  1  0
  3  4  1  0
  4  5  2  0
  5  6  1  0
  6  7  2  0
  7  8  1  0
  8  9  2  0
  9  4  1  0
  9 10  1  0
  7 11  1  0
 11 12  2  0
 12 13  1  0
 11 14  1  0
 15 14  1  1
 15 16  1  0
 16  6  1  0
 16 17  1  6
 17 18  1  0
 18 19  1  0
 19 20  1  6
 19 21  1  0
 21 22  1  6
 21 23  1  0
 23 24  1  0
 25 24  1  6
 25 15  1  0
 25 19  1  0
M  END
> <Smiles>
CCOc1cc2c(cc1O)/C(=N\O)C[C@@H]1[C@@H]2CC[C@]2(C)[C@@H](O)CC[C@@H]12

> <ID>
CHEMBL1627470

> <standard_value>
13

> <IC50_uM>
0.013

> <Activity>
Yes

> <pIC50>
7.886056648

> <BCI>
1

$$$$

  SciTegic03012415362D

 23 26  0  0  1  0            999 V2000
    5.1996   -1.4928    0.0000 C   0  0
    3.8990   -0.7455    0.0000 C   0  0
    2.6003   -1.4977    0.0000 O   0  0
    1.2990   -0.7500    0.0000 C   0  0
    1.2990    0.7500    0.0000 C   0  0
    0.0000    1.5000    0.0000 C   0  0
   -1.2990    0.7500    0.0000 C   0  0
   -1.2990   -0.7500    0.0000 C   0  0
    0.0000   -1.5000    0.0000 C   0  0
    0.0000   -3.0000    0.0000 O   0  0
   -2.5981    1.5000    0.0000 C   0  0
   -2.5981    3.0000    0.0000 C   0  0
   -1.2991    3.7500    0.0000 C   0  0  2  0  0  0
    0.0000    3.0000    0.0000 C   0  0  2  0  0  0
    1.2990    3.7500    0.0000 C   0  0
    1.2990    5.2500    0.0000 C   0  0
    0.0000    6.0000    0.0000 C   0  0  2  0  0  0
    1.2211    6.8711    0.0000 C   0  0
   -0.2851    7.4666    0.0000 C   0  0  1  0  0  0
    0.7318    8.5693    0.0000 O   0  0
   -1.7759    7.6329    0.0000 C   0  0
   -2.3947    6.2665    0.0000 C   0  0
   -1.2991    5.2500    0.0000 C   0  0  1  0  0  0
  1  2  1  0
  2  3  1  0
  3  4  1  0
  4  5  2  0
  5  6  1  0
  6  7  2  0
  7  8  1  0
  8  9  2  0
  9  4  1  0
  9 10  1  0
  7 11  1  0
 11 12  1  0
 13 12  1  1
 13 14  1  0
 14  6  1  0
 14 15  1  6
 15 16  1  0
 16 17  1  0
 17 18  1  6
 17 19  1  0
 19 20  1  6
 19 21  1  0
 21 22  1  0
 23 22  1  6
 23 13  1  0
 23 17  1  0
M  END
> <Smiles>
CCOc1cc2c(cc1O)CC[C@@H]1[C@@H]2CC[C@]2(C)[C@@H](O)CC[C@@H]12

> <ID>
CHEMBL1627442

> <standard_value>
14

> <IC50_uM>
0.014

> <Activity>
Yes

> <pIC50>
7.853871964

> <BCI>
1

$$$$

  SciTegic03012415362D

 31 34  0  0  0  0            999 V2000
    2.5951   -3.0031    0.0000 C   0  0
    2.5973   -1.5031    0.0000 O   0  0
    1.2990   -0.7500    0.0000 C   0  0
    1.2990    0.7500    0.0000 C   0  0
    0.0000    1.5000    0.0000 N   0  0
   -1.2990    0.7500    0.0000 C   0  0
   -1.2990   -0.7500    0.0000 C   0  0
    0.0000   -1.5000    0.0000 C   0  0
   -2.7248   -1.2135    0.0000 C   0  0
   -3.1882   -2.6402    0.0000 O   0  0
   -3.6065    0.0000    0.0000 C   0  0
   -2.7248    1.2135    0.0000 C   0  0
   -3.3339    2.5831    0.0000 N   0  0
   -2.4537    3.7988    0.0000 C   0  0
   -3.0656    5.1692    0.0000 C   0  0
   -2.1854    6.3848    0.0000 C   0  0
   -2.7972    7.7553    0.0000 N   0  0
   -1.9171    8.9709    0.0000 C   0  0
   -2.5289   10.3414    0.0000 C   0  0
   -1.6493   11.5564    0.0000 O   0  0
   -4.8257    2.7399    0.0000 C   0  0
   -5.4358    4.1102    0.0000 O   0  0
   -5.7073    1.5263    0.0000 C   0  0
   -7.1991    1.6831    0.0000 C   0  0
   -8.0808    0.4696    0.0000 C   0  0
   -9.5737    0.6234    0.0000 N   0  3
  -10.4537   -0.5914    0.0000 O   0  0
  -10.1862    1.9927    0.0000 O   0  5
   -7.4707   -0.9007    0.0000 C   0  0
   -5.9789   -1.0575    0.0000 C   0  0
   -5.0972    0.1560    0.0000 C   0  0
  1  2  1  0
  2  3  1  0
  3  4  2  0
  4  5  1  0
  5  6  2  0
  6  7  1  0
  7  8  2  0
  8  3  1  0
  7  9  1  0
  9 10  2  0
  9 11  1  0
 11 12  2  0
 12  6  1  0
 12 13  1  0
 13 14  1  0
 14 15  1  0
 15 16  1  0
 16 17  1  0
 17 18  1  0
 18 19  1  0
 19 20  1  0
 13 21  1  0
 21 22  2  0
 21 23  1  0
 23 24  2  0
 24 25  1  0
 25 26  1  0
 26 27  2  0
 26 28  1  0
 25 29  2  0
 29 30  1  0
 30 31  2  0
 31 11  1  0
 31 23  1  0
M  CHG  2  26   1  28  -1
M  END
> <Smiles>
COc1cnc2c(c1)C(=O)c1c-2n(CCCNCCO)c(=O)c2cc([N+](=O)[O-])ccc12.Cl

> <ID>
CHEMBL3126929

> <standard_value>
14

> <IC50_uM>
0.014

> <Activity>
Yes

> <pIC50>
7.853871964

> <BCI>
1

> <RemovedSalts>
HCl

$$$$

  SciTegic03012415362D

 44 48  0  0  0  0            999 V2000
    2.5951   -3.0031    0.0000 C   0  0
    2.5973   -1.5031    0.0000 O   0  0
    1.2990   -0.7500    0.0000 C   0  0
    1.2990    0.7500    0.0000 C   0  0
    0.0000    1.5000    0.0000 C   0  0
    0.0000    3.0000    0.0000 Cl  0  0
   -1.2990    0.7500    0.0000 C   0  0
   -1.2990   -0.7500    0.0000 C   0  0
   -2.5987   -1.5004    0.0000 C   0  0
   -2.7343   -2.9815    0.0000 N   0  0
   -4.2010   -3.2957    0.0000 N   0  0
   -4.8092   -4.6676    0.0000 C   0  0
   -4.0212   -5.9381    0.0000 C   0  0
   -4.7306   -7.2598    0.0000 C   0  0
   -6.2299   -7.3063    0.0000 C   0  0
   -7.0197   -6.0311    0.0000 C   0  0
   -8.5200   -6.0745    0.0000 N   0  0
   -9.3085   -4.7975    0.0000 C   0  0
   -8.5968   -3.4771    0.0000 O   0  0
  -10.8087   -4.8409    0.0000 N   0  0
  -11.5972   -3.5639    0.0000 C   0  0
  -13.0966   -3.6051    0.0000 C   0  0
  -13.8821   -2.3272    0.0000 C   0  0
  -15.3824   -2.3685    0.0000 C   0  0
  -16.0972   -3.6873    0.0000 F   0  0
  -16.1674   -1.0904    0.0000 F   0  0
  -16.8818   -2.4091    0.0000 F   0  0
  -13.1681   -1.0080    0.0000 C   0  0
  -11.6687   -0.9667    0.0000 C   0  0
  -10.9544    0.3532    0.0000 C   0  0
  -11.7390    1.6316    0.0000 F   0  0
   -9.4549    0.3940    0.0000 F   0  0
  -10.2398    1.6720    0.0000 F   0  0
  -10.8832   -2.2446    0.0000 C   0  0
   -6.3104   -4.7094    0.0000 C   0  0
   -4.9530   -1.9978    0.0000 C   0  0
   -3.9511   -0.8815    0.0000 C   0  0
   -4.2568    0.5878    0.0000 C   0  0
   -3.2235    1.6679    0.0000 C   0  0
   -3.6446    3.1076    0.0000 C   0  0
   -5.1020    3.4627    0.0000 N   0  0
   -6.1382    2.3782    0.0000 C   0  0
   -5.7171    0.9385    0.0000 C   0  0
    0.0000   -1.5000    0.0000 C   0  0
  1  2  1  0
  2  3  1  0
  3  4  2  0
  4  5  1  0
  5  6  1  0
  5  7  2  0
  7  8  1  0
  8  9  1  0
  9 10  2  0
 10 11  1  0
 11 12  1  0
 12 13  2  0
 13 14  1  0
 14 15  2  0
 15 16  1  0
 16 17  1  0
 17 18  1  0
 18 19  2  0
 18 20  1  0
 20 21  1  0
 21 22  2  0
 22 23  1  0
 23 24  1  0
 24 25  1  0
 24 26  1  0
 24 27  1  0
 23 28  2  0
 28 29  1  0
 29 30  1  0
 30 31  1  0
 30 32  1  0
 30 33  1  0
 29 34  2  0
 34 21  1  0
 16 35  2  0
 35 12  1  0
 11 36  1  0
 36 37  2  0
 37  9  1  0
 37 38  1  0
 38 39  2  0
 39 40  1  0
 40 41  2  0
 41 42  1  0
 42 43  2  0
 43 38  1  0
  8 44  2  0
 44  3  1  0
M  END
> <Smiles>
COc1cc(Cl)cc(-c2nn(-c3cccc(NC(=O)Nc4cc(C(F)(F)F)cc(C(F)(F)F)c4)c3)cc2-c2ccncc2)c1

> <ID>
CHEMBL4436746

> <standard_value>
14.1

> <IC50_uM>
0.0141

> <Activity>
Yes

> <pIC50>
7.850780887

> <BCI>
1

$$$$

  SciTegic03012415362D

 25 26  0  0  0  0            999 V2000
    3.8983   -0.7459    0.0000 C   0  0
    2.6003   -1.4977    0.0000 O   0  0
    1.2990   -0.7500    0.0000 C   0  0
    1.2990    0.7500    0.0000 C   0  0
    0.0000    1.5000    0.0000 C   0  0
   -1.2990    0.7500    0.0000 C   0  0
   -2.5973    1.5031    0.0000 C   0  0
   -3.8976    0.7553    0.0000 O   0  0
   -2.5951    3.0039    0.0000 C   0  0
   -3.8916    3.7585    0.0000 C   0  0
   -3.8864    5.2585    0.0000 C   0  0
   -5.1851    6.0107    0.0000 O   0  0
   -6.4856    5.2633    0.0000 C   0  0
   -2.5847    6.0040    0.0000 C   0  0
   -2.5765    7.5048    0.0000 O   0  0
   -1.2738    8.2484    0.0000 C   0  0
   -1.2883    5.2495    0.0000 C   0  0
    0.0156    5.9927    0.0000 O   0  0
    1.3109    5.2364    0.0000 C   0  0
   -1.2935    3.7495    0.0000 C   0  0
   -1.2990   -0.7500    0.0000 C   0  0
   -2.5972   -1.5031    0.0000 O   0  0
   -2.5951   -3.0031    0.0000 C   0  0
    0.0000   -1.5000    0.0000 C   0  0
    0.0000   -3.0000    0.0000 O   0  0
  1  2  1  0
  2  3  1  0
  3  4  2  0
  4  5  1  0
  5  6  2  0
  6  7  1  0
  7  8  2  0
  7  9  1  0
  9 10  2  0
 10 11  1  0
 11 12  1  0
 12 13  1  0
 11 14  2  0
 14 15  1  0
 15 16  1  0
 14 17  1  0
 17 18  1  0
 18 19  1  0
 17 20  2  0
 20  9  1  0
  6 21  1  0
 21 22  1  0
 22 23  1  0
 21 24  2  0
 24  3  1  0
 24 25  1  0
M  END
> <Smiles>
COc1ccc(C(=O)c2cc(OC)c(OC)c(OC)c2)c(OC)c1O

> <ID>
CHEMBL1835000

> <standard_value>
15.1

> <IC50_uM>
0.0151

> <Activity>
Yes

> <pIC50>
7.821023053

> <BCI>
1

$$$$

  SciTegic03012415362D

 29 31  0  0  1  0            999 V2000
    5.3192   -0.2597    0.0000 C   0  0
    4.1500    0.6800    0.0000 C   0  0  1  0  0  0
    2.5200    0.3600    0.0000 C   0  0
    2.3100   -1.1700    0.0000 C   0  0
    1.3300   -1.6300    0.0000 C   0  0
    0.1900   -1.1200    0.0000 C   0  0
    0.0000    0.3600    0.0000 C   0  0
   -1.5600    0.8100    0.0000 C   0  0  2  0  0  0
   -3.0100    0.3400    0.0000 C   0  0
   -3.9100    1.5700    0.0000 C   0  0  2  0  0  0
   -5.4100    1.5671    0.0000 O   0  0
   -3.0100    2.8100    0.0000 C   0  0
   -1.5600    2.3300    0.0000 C   0  0  1  0  0  0
    0.0000    2.8600    0.0000 C   0  0  2  0  0  0
    0.7452    2.1932    0.0000 O   0  0
    0.3300    4.3600    0.0000 C   0  0  2  0  0  0
   -0.6480    5.4889    0.0000 S   0  0  3  0  0  0
   -2.1204    5.2024    0.0000 O   0  0
   -0.1602    6.9083    0.0000 C   0  0
   -1.1413    8.0429    0.0000 C   0  0
   -0.6492    9.4599    0.0000 C   0  0
    0.8240    9.7423    0.0000 C   0  0
    1.3160   11.1593    0.0000 O   0  0
    1.8051    8.6077    0.0000 C   0  0
    1.3131    7.1907    0.0000 C   0  0
    2.3100    4.3400    0.0000 C   0  0
    2.6000    2.8000    0.0000 C   0  0
    1.8719    2.1146    0.0000 O   0  0
    4.1100    2.4200    0.0000 O   0  0
  2  1  1  1
  2  3  1  0
  3  4  1  0
  4  5  1  0
  5  6  1  0
  6  7  2  0
  8  7  1  6
  8  9  1  0
  9 10  1  0
 10 11  1  6
 10 12  1  0
 13 12  1  1
 13  8  1  0
 13 14  1  0
 14 15  1  1
 14 16  1  0
 16 17  1  6
 17 18  2  0
 17 19  1  4
 19 20  2  0
 20 21  1  0
 21 22  2  0
 22 23  1  0
 22 24  1  0
 24 25  2  0
 25 19  1  0
 16 26  1  0
 26 27  1  0
 27 28  2  0
 27 29  1  0
 29  2  1  0
M  END
> <Smiles>
C[C@H]1CCC/C=C/[C@@H]2C[C@H](O)C[C@H]2[C@H](O)[C@H]([S+]([O-])c2ccc(O)cc2)CC(=O)O1

> <ID>
CHEMBL332272

> <standard_value>
17

> <IC50_uM>
0.017

> <Activity>
Yes

> <pIC50>
7.769551079

> <BCI>
1

$$$$

  SciTegic03012415362D

 46 54  0  0  1  0            999 V2000
    4.1900   -1.3600    0.0000 C   0  0
    2.6900   -1.3600    0.0000 C   0  0  1  0  0  0
    1.8400   -2.8200    0.0000 C   0  0  1  0  0  0
    2.5900   -4.1179    0.0000 O   0  0
    4.0908   -4.1184    0.0000 C   0  0  1  0  0  0
    4.8431   -5.4161    0.0000 C   0  0
    6.3431   -5.4135    0.0000 C   0  0
    7.0909   -4.1131    0.0000 C   0  0  1  0  0  0
    8.5917   -4.1136    0.0000 O   0  0
    9.3425   -5.4131    0.0000 C   0  0  1  0  0  0
    8.4849   -6.8605    0.0000 O   0  0
    9.3242   -8.3209    0.0000 C   0  0  2  0  0  0
    8.7106   -9.3753    0.0000 O   0  0
    9.0263  -10.5425    0.0000 C   0  0  1  0  0  0
   10.2168   -9.6300    0.0000 C   0  0
   10.0721  -11.1512    0.0000 C   0  0
   11.2429  -10.8491    0.0000 C   0  0
   11.8566   -9.7947    0.0000 C   0  0  1  0  0  0
   13.5410   -9.8030    0.0000 C   0  0  2  0  0  0
   14.2855  -11.1052    0.0000 C   0  0
   14.3910   -8.3424    0.0000 C   0  0
   13.5567   -6.8734    0.0000 C   0  0
   11.8587   -6.8686    0.0000 C   0  0  1  0  0  0
   11.0243   -5.3996    0.0000 C   0  0  1  0  0  0
   11.7737   -4.1002    0.0000 C   0  0
   11.0086   -8.3293    0.0000 C   0  0  1  0  0  0
   10.8546   -9.7669    0.0000 O   0  0
    9.9201  -10.2991    0.0000 O   0  0
    6.3386   -2.8154    0.0000 C   0  0
    4.8386   -2.8180    0.0000 C   0  0
    0.1500   -2.8200    0.0000 O   0  0
   -0.6900   -1.3600    0.0000 C   0  0  2  0  0  0
   -1.9100   -1.3600    0.0000 O   0  0
   -2.7600   -0.5000    0.0000 C   0  0  1  0  0  0
   -1.3725    0.0700    0.0000 C   0  0
   -2.7600    0.7100    0.0000 C   0  0
   -1.9100    1.5700    0.0000 C   0  0
   -0.6900    1.5700    0.0000 C   0  0  1  0  0  0
    0.1500    3.0300    0.0000 C   0  0  2  0  0  0
   -0.6010    4.3285    0.0000 C   0  0
    1.8400    3.0300    0.0000 C   0  0
    2.6900    1.5700    0.0000 C   0  0
    1.8400    0.1000    0.0000 C   0  0  2  0  0  0
    0.1500    0.1000    0.0000 C   0  0  1  0  0  0
   -1.1700    0.6900    0.0000 O   0  0
   -2.1000    0.1500    0.0000 O   0  0
  2  1  1  1
  2  3  1  0
  3  4  1  1
  5  4  1  6
  5  6  1  0
  6  7  1  0
  7  8  1  0
  8  9  1  6
 10  9  1  6
 10 11  1  0
 12 11  1  1
 12 13  1  0
 13 14  1  0
 14 15  1  1
 14 16  1  0
 16 17  1  0
 18 17  1  6
 18 19  1  0
 19 20  1  1
 19 21  1  0
 21 22  1  0
 23 22  1  6
 23 24  1  0
 24 10  1  0
 24 25  1  6
 23 26  1  0
 26 12  1  0
 26 18  1  0
 26 27  1  1
 27 28  1  0
 28 14  1  0
  8 29  1  0
 29 30  1  0
 30  5  1  0
  3 31  1  0
 32 31  1  6
 32 33  1  0
 33 34  1  0
 34 35  1  6
 34 36  1  0
 36 37  1  0
 38 37  1  1
 38 39  1  0
 39 40  1  6
 39 41  1  0
 41 42  1  0
 43 42  1  1
 43  2  1  0
 43 44  1  0
 44 32  1  0
 44 38  1  0
 44 45  1  6
 45 46  1  0
 46 34  1  0
M  END
> <Smiles>
C[C@H]1[C@@H](O[C@H]2CC[C@@H](O[C@H]3O[C@@H]4O[C@@]5(C)CC[C@H]6[C@H](C)CC[C@@H]([C@H]3C)[C@@]46OO5)CC2)O[C@@H]2O[C@@]3(C)CC[C@H]4[C@H](C)CC[C@@H]1[C@@]24OO3

> <ID>
CHEMBL446833

> <standard_value>
20

> <IC50_uM>
0.02

> <Activity>
Yes

> <pIC50>
7.698970004

> <BCI>
1

$$$$

  SciTegic03012415362D

 35 39  0  0  0  0            999 V2000
    3.8983   -0.7459    0.0000 C   0  0
    2.6003   -1.4977    0.0000 O   0  0
    1.2990   -0.7500    0.0000 C   0  0
    1.2990    0.7500    0.0000 C   0  0
    0.0000    1.5000    0.0000 C   0  0
   -1.2990    0.7500    0.0000 C   0  0
   -1.2990   -0.7500    0.0000 C   0  0
    0.0000   -1.5000    0.0000 C   0  0
    0.0000   -3.0000    0.0000 O   0  0
   -2.4133    1.7530    0.0000 C   0  0
   -3.8805    1.4410    0.0000 O   0  0
   -1.8032    3.1233    0.0000 C   0  0
   -0.3115    2.9665    0.0000 C   0  0
    0.5701    4.1788    0.0000 N   0  0
    2.0630    4.0244    0.0000 C   0  0
    2.9439    5.2395    0.0000 C   0  0
    4.4367    5.0850    0.0000 C   0  0
    5.3177    6.3001    0.0000 N   0  0
    6.8100    6.1480    0.0000 C   0  0
    7.6879    7.3642    0.0000 C   0  0
    7.0736    8.7326    0.0000 O   0  0
    5.5814    8.8849    0.0000 C   0  0
    4.7034    7.6687    0.0000 C   0  0
   -0.0400    5.5491    0.0000 C   0  0
    0.8416    6.7626    0.0000 O   0  0
   -1.5318    5.7059    0.0000 C   0  0
   -2.1419    7.0762    0.0000 C   0  0
   -3.6337    7.2330    0.0000 C   0  0
   -4.2414    8.6053    0.0000 O   0  0
   -3.3580    9.8176    0.0000 C   0  0
   -4.5154    6.0194    0.0000 C   0  0
   -6.0083    6.1732    0.0000 O   0  0
   -6.8883    4.9585    0.0000 C   0  0
   -3.9053    4.6491    0.0000 C   0  0
   -2.4135    4.4923    0.0000 C   0  0
  1  2  1  0
  2  3  1  0
  3  4  2  0
  4  5  1  0
  5  6  2  0
  6  7  1  0
  7  8  2  0
  8  3  1  0
  8  9  1  0
  6 10  1  0
 10 11  2  0
 10 12  1  0
 12 13  2  0
 13  5  1  0
 13 14  1  0
 14 15  1  0
 15 16  1  0
 16 17  1  0
 17 18  1  0
 18 19  1  0
 19 20  1  0
 20 21  1  0
 21 22  1  0
 22 23  1  0
 23 18  1  0
 14 24  1  0
 24 25  2  0
 24 26  1  0
 26 27  2  0
 27 28  1  0
 28 29  1  0
 29 30  1  0
 28 31  2  0
 31 32  1  0
 32 33  1  0
 31 34  1  0
 34 35  2  0
 35 12  1  0
 35 26  1  0
M  END
> <Smiles>
COc1cc2c(cc1O)C(=O)c1c-2n(CCCN2CCOCC2)c(=O)c2cc(OC)c(OC)cc12

> <ID>
CHEMBL2177791

> <standard_value>
20

> <IC50_uM>
0.02

> <Activity>
Yes

> <pIC50>
7.698970004

> <BCI>
1

$$$$

  SciTegic03012415362D

 36 41  0  0  0  0            999 V2000
    6.5025    0.7377    0.0000 O   0  0
    6.4990   -0.7623    0.0000 C   0  0
    5.1972   -1.5092    0.0000 C   0  0
    3.8990   -0.7562    0.0000 C   0  0
    2.5973   -1.5031    0.0000 C   0  0
    1.2990   -0.7500    0.0000 N   0  0
    1.2990    0.7500    0.0000 C   0  0
    0.0000    1.5000    0.0000 C   0  0
    0.3114    2.9665    0.0000 S   0  0
    1.8032    3.1233    0.0000 C   0  0
    2.6837    4.3363    0.0000 C   0  0
    4.1755    4.1795    0.0000 C   0  0
    4.7856    2.8092    0.0000 C   0  0
    3.9040    1.5957    0.0000 C   0  0
    2.4133    1.7530    0.0000 C   0  0
   -1.2990    0.7500    0.0000 C   0  0
   -2.5981    1.5000    0.0000 O   0  0
   -1.2990   -0.7500    0.0000 N   0  0
   -2.4133   -1.7530    0.0000 N   0  0
   -1.8032   -3.1233    0.0000 N   0  0
   -0.3114   -2.9665    0.0000 C   0  0
    0.6929   -4.0817    0.0000 C   0  0
    0.3385   -5.5341    0.0000 C   0  0
    1.4233   -6.5700    0.0000 C   0  0
    2.8629   -6.1484    0.0000 C   0  0
    3.2176   -4.6910    0.0000 C   0  0
    2.1327   -3.6551    0.0000 C   0  0
    0.0000   -1.5000    0.0000 C   0  0
    7.7972   -1.5154    0.0000 N   0  0
    9.0990   -0.7685    0.0000 C   0  0
   10.3972   -1.5216    0.0000 C   0  0
   11.6989   -0.7747    0.0000 C   0  0
   13.0499   -1.3965    0.0000 C   0  0
   14.0543   -0.2825    0.0000 N   0  0
   13.3052    1.0171    0.0000 C   0  0
   11.8377    0.7061    0.0000 N   0  0
  1  2  2  0
  2  3  1  0
  3  4  1  0
  4  5  1  0
  5  6  1  0
  6  7  1  0
  7  8  2  0
  8  9  1  0
  9 10  1  0
 10 11  2  0
 11 12  1  0
 12 13  2  0
 13 14  1  0
 14 15  2  0
 15 10  1  0
 15  7  1  0
  8 16  1  0
 16 17  2  0
 16 18  1  0
 18 19  1  0
 19 20  2  0
 20 21  1  0
 21 22  1  0
 22 23  2  0
 23 24  1  0
 24 25  2  0
 25 26  1  0
 26 27  2  0
 27 22  1  0
 21 28  2  0
 28  6  1  0
 28 18  1  0
  2 29  1  0
 29 30  1  0
 30 31  1  0
 31 32  1  0
 32 33  2  0
 33 34  1  0
 34 35  1  0
 35 36  2  0
 36 32  1  0
M  END
> <Smiles>
O=C(CCCn1c2c(sc3ccccc32)c(=O)n2nnc(-c3ccccc3)c12)NCCc1c[nH]cn1

> <ID>
CHEMBL2402314

> <standard_value>
20.42

> <IC50_uM>
0.02042

> <Activity>
Yes

> <pIC50>
7.689944262

> <BCI>
1

$$$$

  SciTegic03012415362D

 31 35  0  0  1  0            999 V2000
    1.2636   -2.2496    0.0000 C   0  0
    1.2990   -0.7500    0.0000 C   0  0
    2.5801    0.0303    0.0000 C   0  0
    1.2990    0.7500    0.0000 C   0  0  2  0  0  0
    2.5981    1.5000    0.0000 O   0  0
    0.0000    1.5000    0.0000 C   0  0
   -1.2990    0.7500    0.0000 C   0  0
   -1.2990   -0.7500    0.0000 C   0  0  1  0  0  0
   -2.5981    0.0000    0.0000 C   0  0
   -2.5981   -1.5000    0.0000 O   0  0
   -2.5981   -3.0000    0.0000 C   0  0
   -3.8971   -3.7500    0.0000 C   0  0
   -5.1961   -3.0000    0.0000 O   0  0
   -3.8971   -5.2500    0.0000 C   0  0
   -2.5980   -6.0000    0.0000 C   0  0
   -2.5949   -7.5008    0.0000 C   0  0
   -1.2941   -8.2494    0.0000 C   0  0
   -1.2910   -9.7502    0.0000 C   0  0
    0.0080  -10.5003    0.0000 C   0  0
    0.0081  -12.0003    0.0000 C   0  0
    1.3071  -12.7502    0.0000 O   0  0
   -1.2909  -12.7503    0.0000 C   0  0
   -1.6024  -14.2168    0.0000 C   0  0
   -3.0941  -14.3737    0.0000 C   0  0
   -3.7043  -13.0034    0.0000 N   0  0
   -2.5900  -12.0004    0.0000 C   0  0
   -2.5901  -10.5004    0.0000 C   0  0
   -1.2990   -5.2500    0.0000 C   0  0
   -1.2990   -3.7500    0.0000 C   0  0
    0.0000   -3.0000    0.0000 C   0  0
    0.0000   -1.5000    0.0000 C   0  0  2  0  0  0
  1  2  1  0
  2  3  1  0
  2  4  1  0
  4  5  1  1
  4  6  1  0
  6  7  1  0
  7  8  1  0
  8  9  1  1
  8 10  1  0
 10 11  1  0
 11 12  2  0
 12 13  1  0
 12 14  1  0
 14 15  2  0
 15 16  1  0
 16 17  2  0
 17 18  1  0
 18 19  2  0
 19 20  1  0
 20 21  1  0
 20 22  2  0
 22 23  1  0
 23 24  2  0
 24 25  1  0
 25 26  1  0
 26 22  1  0
 26 27  2  0
 27 18  1  0
 15 28  1  0
 28 29  2  0
 29 11  1  0
 29 30  1  0
 31 30  1  1
 31  2  1  0
 31  8  1  0
M  END
> <Smiles>
CC1(C)[C@H](O)CC[C@@]2(C)Oc3c(O)cc(/C=C/c4cc(O)c5cc[nH]c5c4)cc3C[C@H]12

> <ID>
CHEMBL3233610

> <standard_value>
20.42

> <IC50_uM>
0.02042

> <Activity>
Yes

> <pIC50>
7.689944262

> <BCI>
1

$$$$

  SciTegic03012415362D

 73 80  0  0  1  0            999 V2000
    3.9075   -3.7444    0.0000 C   0  0
    2.6060   -2.9986    0.0000 O   0  0
    2.6003   -1.4977    0.0000 C   0  0  2  0  0  0
    3.8990   -0.7455    0.0000 C   0  0
    3.8964    0.7545    0.0000 O   0  0
    5.2003   -1.4932    0.0000 C   0  0
    5.2029   -2.9932    0.0000 C   0  0
    6.4983   -0.7414    0.0000 O   0  0
    1.2990   -0.7500    0.0000 C   0  0  2  0  0  0
    1.2990    0.7500    0.0000 C   0  0
    0.0000    1.5000    0.0000 C   0  0
    0.0000    3.0000    0.0000 C   0  0
   -1.2991    3.7500    0.0000 C   0  0
   -1.2991    5.2500    0.0000 C   0  0
   -2.5981    6.0000    0.0000 C   0  0
   -2.5951    7.5008    0.0000 O   0  0
   -1.2942    8.2494    0.0000 C   0  0  1  0  0  0
   -1.2890    9.7494    0.0000 C   0  0
    0.0126   10.4949    0.0000 C   0  0  1  0  0  0
    0.0147   11.9958    0.0000 O   0  0
   -1.2835   12.7488    0.0000 C   0  0  1  0  0  0
   -1.2836   14.2488    0.0000 C   0  0
   -2.5827   14.9988    0.0000 C   0  0  1  0  0  0
   -2.5827   16.4988    0.0000 O   0  0
   -3.8817   14.2488    0.0000 C   0  0  2  0  0  0
   -5.1807   14.9988    0.0000 O   0  0
   -3.8817   12.7488    0.0000 C   0  0  1  0  0  0
   -5.1807   11.9988    0.0000 C   0  0
   -2.5826   11.9988    0.0000 O   0  0
    1.3091    9.7405    0.0000 C   0  0  2  0  0  0
    2.6107   10.4860    0.0000 O   0  0
    1.3039    8.2405    0.0000 C   0  0  1  0  0  0
    2.6004    7.4860    0.0000 C   0  0
    0.0023    7.4949    0.0000 O   0  0
   -3.8972    5.2500    0.0000 C   0  0
   -5.1962    6.0000    0.0000 C   0  0
   -3.8971    3.7500    0.0000 C   0  0
   -5.1962    3.0000    0.0000 O   0  0
   -2.5981    3.0000    0.0000 C   0  0
   -2.5981    1.5000    0.0000 C   0  0
   -3.8971    0.7500    0.0000 O   0  0
   -1.2990    0.7500    0.0000 C   0  0
   -1.2990   -0.7500    0.0000 C   0  0
   -2.5981   -1.5000    0.0000 O   0  0
    0.0000   -1.5000    0.0000 C   0  0  1  0  0  0
   -0.0031   -3.0008    0.0000 O   0  0
   -1.3039   -3.7494    0.0000 C   0  0  1  0  0  0
   -1.3092   -5.2494    0.0000 C   0  0
   -2.6108   -5.9949    0.0000 C   0  0  1  0  0  0
   -2.6129   -7.4958    0.0000 O   0  0
   -1.3147   -8.2488    0.0000 C   0  0  1  0  0  0
   -1.3146   -9.7488    0.0000 C   0  0
   -0.0155  -10.4988    0.0000 C   0  0  1  0  0  0
   -0.0186  -11.9997    0.0000 O   0  0
   -1.3194  -12.7482    0.0000 C   0  0  1  0  0  0
   -1.3247  -14.2483    0.0000 C   0  0
   -2.6263  -14.9938    0.0000 C   0  0  2  0  0  0
   -2.6315  -16.4938    0.0000 O   0  0
   -3.9228  -14.2393    0.0000 C   0  0  2  0  0  0
   -5.2244  -14.9848    0.0000 O   0  0
   -3.9176  -12.7393    0.0000 C   0  0  1  0  0  0
   -5.2140  -11.9848    0.0000 C   0  0
   -2.6160  -11.9938    0.0000 O   0  0
    1.2835   -9.7488    0.0000 C   0  0  2  0  0  0
    2.5825  -10.4988    0.0000 O   0  0
    1.2835   -8.2488    0.0000 C   0  0  1  0  0  0
    2.5825   -7.4988    0.0000 C   0  0
   -0.0155   -7.4988    0.0000 O   0  0
   -3.9072   -5.2404    0.0000 C   0  0  2  0  0  0
   -5.2089   -5.9859    0.0000 O   0  0
   -3.9020   -3.7404    0.0000 C   0  0  1  0  0  0
   -5.1985   -2.9860    0.0000 C   0  0
   -2.6004   -2.9949    0.0000 O   0  0
  1  2  1  0
  3  2  1  1
  3  4  1  0
  4  5  2  0
  4  6  1  0
  6  7  1  0
  6  8  2  0
  3  9  1  0
  9 10  1  1
 10 11  1  0
 11 12  2  0
 12 13  1  0
 13 14  2  0
 14 15  1  0
 15 16  1  0
 17 16  1  1
 17 18  1  0
 18 19  1  0
 19 20  1  1
 21 20  1  6
 21 22  1  0
 22 23  1  0
 23 24  1  6
 23 25  1  0
 25 26  1  1
 25 27  1  0
 27 28  1  6
 27 29  1  0
 29 21  1  0
 19 30  1  0
 30 31  1  6
 30 32  1  0
 32 33  1  1
 32 34  1  0
 34 17  1  0
 15 35  2  0
 35 36  1  0
 35 37  1  0
 37 38  1  0
 37 39  2  0
 39 13  1  0
 39 40  1  0
 40 41  1  0
 40 42  2  0
 42 11  1  0
 42 43  1  0
 43 44  2  0
 43 45  1  0
 45  9  1  0
 45 46  1  6
 47 46  1  1
 47 48  1  0
 48 49  1  0
 49 50  1  1
 51 50  1  6
 51 52  1  0
 52 53  1  0
 53 54  1  6
 55 54  1  1
 55 56  1  0
 56 57  1  0
 57 58  1  6
 57 59  1  0
 59 60  1  6
 59 61  1  0
 61 62  1  1
 61 63  1  0
 63 55  1  0
 53 64  1  0
 64 65  1  1
 64 66  1  0
 66 67  1  6
 66 68  1  0
 68 51  1  0
 49 69  1  0
 69 70  1  6
 69 71  1  0
 71 72  1  1
 71 73  1  0
 73 47  1  0
M  END
> <Smiles>
CO[C@H](C(=O)C(C)=O)[C@@H]1Cc2cc3cc(O[C@H]4C[C@@H](O[C@H]5C[C@@H](O)[C@H](O)[C@@H](C)O5)[C@H](O)[C@@H](C)O4)c(C)c(O)c3c(O)c2C(=O)[C@H]1O[C@H]1C[C@@H](O[C@H]2C[C@@H](O[C@H]3C[C@H](O)[C@H](O)[C@@H](C)O3
)[C@H](O)[C@@H](C)O2)[C@H](O)[C@@H](C)O1

> <ID>
CHEMBL2152295

> <standard_value>
20.89

> <IC50_uM>
0.02089

> <Activity>
Yes

> <pIC50>
7.68006156

> <BCI>
1

$$$$

  SciTegic03012415362D

 29 32  0  0  1  0            999 V2000
    3.8983   -0.7459    0.0000 C   0  0
    2.6003   -1.4977    0.0000 C   0  0
    1.2990   -0.7500    0.0000 C   0  0
    1.2990    0.7500    0.0000 C   0  0
    0.0000    1.5000    0.0000 C   0  0
   -1.2990    0.7500    0.0000 C   0  0
   -1.2990   -0.7500    0.0000 C   0  0
    0.0000   -1.5000    0.0000 C   0  0
   -0.0031   -3.0008    0.0000 O   0  0
   -1.3039   -3.7494    0.0000 S   0  0
   -2.6016   -2.9971    0.0000 N   0  0
   -1.3070   -5.2494    0.0000 O   0  0
   -2.6044   -4.4969    0.0000 O   0  0
   -2.5981    1.5000    0.0000 C   0  0
   -2.5981    3.0000    0.0000 C   0  0
   -1.2991    3.7500    0.0000 C   0  0  2  0  0  0
    0.0000    3.0000    0.0000 C   0  0  2  0  0  0
    1.2990    3.7500    0.0000 C   0  0
    1.2990    5.2500    0.0000 C   0  0
    0.0000    6.0000    0.0000 C   0  0  2  0  0  0
    1.2211    6.8711    0.0000 C   0  0
   -0.2851    7.4666    0.0000 C   0  0  1  0  0  0
    0.7337    8.5650    0.0000 C   0  0
    2.1972    8.2322    0.0000 N   0  3
    3.2173    9.3319    0.0000 O   0  0
    2.6400    6.7990    0.0000 O   0  5
   -1.7759    7.6329    0.0000 C   0  0
   -2.3947    6.2665    0.0000 C   0  0
   -1.2991    5.2500    0.0000 C   0  0  1  0  0  0
  1  2  1  0
  2  3  1  0
  3  4  2  0
  4  5  1  0
  5  6  2  0
  6  7  1  0
  7  8  2  0
  8  3  1  0
  8  9  1  0
  9 10  1  0
 10 11  1  0
 10 12  2  0
 10 13  2  0
  6 14  1  0
 14 15  1  0
 16 15  1  1
 16 17  1  0
 17  5  1  0
 17 18  1  6
 18 19  1  0
 19 20  1  0
 20 21  1  6
 20 22  1  0
 22 23  1  6
 23 24  1  0
 24 25  2  0
 24 26  1  0
 22 27  1  0
 27 28  1  0
 29 28  1  6
 29 16  1  0
 29 20  1  0
M  CHG  2  24   1  26  -1
M  END
> <Smiles>
CCc1cc2c(cc1OS(N)(=O)=O)CC[C@@H]1[C@@H]2CC[C@]2(C)[C@@H](C[N+](=O)[O-])CC[C@@H]12

> <ID>
CHEMBL1092342

> <standard_value>
21

> <IC50_uM>
0.021

> <Activity>
Yes

> <pIC50>
7.677780705

> <BCI>
1

$$$$

  SciTegic03012415362D

 58 66  0  0  1  0            999 V2000
   -0.8310    2.9526    0.0000 C   0  0
    0.2836    3.9564    0.0000 C   0  0
    1.7325    3.5681    0.0000 O   0  0
    2.8730    4.9762    0.0000 C   0  0
    1.4871    5.5502    0.0000 N   0  0
    0.0000    5.7460    0.0000 C   0  0
   -1.4872    5.5502    0.0000 C   0  0
   -2.8730    4.9761    0.0000 N   0  0
   -4.0630    4.0630    0.0000 C   0  0
   -2.5970    2.9981    0.0000 C   0  0
   -1.2980    3.7481    0.0000 O   0  0
   -4.9762    2.8730    0.0000 C   0  0
   -6.2752    3.6230    0.0000 O   0  0
   -5.5502    1.4871    0.0000 N   0  0
   -5.7460    0.0000    0.0000 C   0  0  1  0  0  0
   -7.2577    0.0029    0.0000 C   0  0
   -8.0064    1.3037    0.0000 C   0  0
   -9.5064    1.3088    0.0000 C   0  0
  -10.2520    2.6103    0.0000 C   0  0
   -9.4977    3.9068    0.0000 C   0  0
  -10.2433    5.2084    0.0000 O   0  0
   -7.9977    3.9018    0.0000 C   0  0
   -7.2520    2.6003    0.0000 C   0  0
   -5.5502   -1.4872    0.0000 C   0  0
   -4.9762   -2.8730    0.0000 N   0  0
   -4.0630   -4.0630    0.0000 C   0  0
   -2.9981   -2.5970    0.0000 C   0  0
   -1.5002   -2.6754    0.0000 C   0  0
   -3.7481   -1.2980    0.0000 O   0  0
   -2.8730   -4.9762    0.0000 C   0  0
   -1.4872   -5.5502    0.0000 N   0  0
    0.0000   -5.7460    0.0000 C   0  0
   -0.2836   -3.9564    0.0000 C   0  0
    0.8310   -2.9526    0.0000 C   0  0
   -1.7325   -3.5681    0.0000 O   0  0
    1.4872   -5.5502    0.0000 C   0  0
    2.8730   -4.9762    0.0000 N   0  0
    4.0630   -4.0630    0.0000 C   0  0
    2.5970   -2.9981    0.0000 C   0  0
    1.2980   -3.7481    0.0000 O   0  0
    4.9762   -2.8730    0.0000 C   0  0
    6.2752   -3.6230    0.0000 O   0  0
    5.5502   -1.4872    0.0000 N   0  0
    5.7460    0.0000    0.0000 C   0  0  1  0  0  0
    7.2577   -0.0029    0.0000 C   0  0
    8.0064   -1.3037    0.0000 C   0  0
    9.5064   -1.3088    0.0000 C   0  0
   10.2520   -2.6103    0.0000 C   0  0
    9.4977   -3.9069    0.0000 C   0  0
   10.2433   -5.2084    0.0000 O   0  0
    7.9977   -3.9018    0.0000 C   0  0
    7.2520   -2.6003    0.0000 C   0  0
    5.5502    1.4872    0.0000 C   0  0
    4.9762    2.8730    0.0000 N   0  0
    4.0630    4.0630    0.0000 C   0  0
    2.9981    2.5970    0.0000 C   0  0
    1.5002    2.6754    0.0000 C   0  0
    3.7481    1.2980    0.0000 O   0  0
  1  2  1  0
  2  3  1  0
  3  4  1  0
  4  5  2  0
  5  6  1  0
  6  2  2  0
  6  7  1  0
  7  8  2  0
  8  9  1  0
  9 10  2  0
 10 11  1  0
 11  7  1  0
  9 12  1  0
 12 13  2  0
 12 14  1  0
 14 15  1  0
 15 16  1  6
 16 17  1  0
 17 18  2  0
 18 19  1  0
 19 20  2  0
 20 21  1  0
 20 22  1  0
 22 23  2  0
 23 17  1  0
 15 24  1  0
 24 25  2  0
 25 26  1  0
 26 27  2  0
 27 28  1  0
 27 29  1  0
 29 24  1  0
 26 30  1  0
 30 31  2  0
 31 32  1  0
 32 33  2  0
 33 34  1  0
 33 35  1  0
 35 30  1  0
 32 36  1  0
 36 37  2  0
 37 38  1  0
 38 39  2  0
 39 40  1  0
 40 36  1  0
 38 41  1  0
 41 42  2  0
 41 43  1  0
 43 44  1  0
 44 45  1  6
 45 46  1  0
 46 47  2  0
 47 48  1  0
 48 49  2  0
 49 50  1  0
 49 51  1  0
 51 52  2  0
 52 46  1  0
 44 53  1  0
 53 54  2  0
 54 55  1  0
 55  4  1  0
 55 56  2  0
 56 57  1  0
 56 58  1  0
 58 53  1  0
M  END
> <Smiles>
Cc1oc2nc1-c1nc(co1)C(=O)N[C@@H](Cc1ccc(O)cc1)c1nc(c(C)o1)-c1nc(c(C)o1)-c1nc(co1)C(=O)N[C@@H](Cc1ccc(O)cc1)c1nc-2c(C)o1

> <ID>
CHEMBL4577576

> <standard_value>
21

> <IC50_uM>
0.021

> <Activity>
Yes

> <pIC50>
7.677780705

> <BCI>
1

$$$$

  SciTegic03012415362D

 45 48  0  0  1  0            999 V2000
   -9.1533   -3.3017    0.0000 C   0  0
   -7.6658   -3.1088    0.0000 N   0  0
   -6.7537   -4.3007    0.0000 C   0  0
   -7.3300   -5.6856    0.0000 O   0  0
   -5.2654   -4.1077    0.0000 N   0  0
   -4.3533   -5.2996    0.0000 C   0  0
   -2.8675   -5.1069    0.0000 C   0  0  1  0  0  0
   -2.1519   -3.7886    0.0000 O   0  0
   -0.6928   -4.0817    0.0000 C   0  0  1  0  0  0
    0.3114   -2.9665    0.0000 N   0  0
    1.8032   -3.1233    0.0000 C   0  0
    2.4133   -1.7530    0.0000 N   0  0
    1.2990   -0.7500    0.0000 C   0  0
    1.2990    0.7500    0.0000 C   0  0
    2.5972    1.5031    0.0000 N   0  0
    2.5951    3.0039    0.0000 C   0  0
    1.2948    3.7517    0.0000 O   0  0
    3.8933    3.7570    0.0000 N   0  0
    3.8912    5.2578    0.0000 C   0  0
    5.1876    6.0124    0.0000 C   0  0
    5.1824    7.5124    0.0000 C   0  0
    3.8807    8.2579    0.0000 C   0  0
    2.5843    7.5034    0.0000 C   0  0
    2.5895    6.0034    0.0000 C   0  0
    0.0000    1.5000    0.0000 N   0  0
   -1.2990    0.7500    0.0000 C   0  0
   -1.2990   -0.7500    0.0000 N   0  0
    0.0000   -1.5000    0.0000 C   0  0
   -0.4810   -5.5489    0.0000 C   0  0  2  0  0  0
    0.8433   -6.2496    0.0000 O   0  0
    2.1149   -5.4524    0.0000 Si  0  0
    2.0599   -3.9534    0.0000 C   0  0
    0.7893   -4.7504    0.0000 C   0  0
    3.4415   -6.1542    0.0000 C   0  0
    4.7124   -5.3575    0.0000 C   0  0
    3.4965   -7.6532    0.0000 C   0  0
    4.7671   -6.8563    0.0000 C   0  0
   -1.8348   -6.1949    0.0000 C   0  0  2  0  0  0
   -2.1046   -7.6686    0.0000 C   0  0
   -0.9618   -8.6416    0.0000 C   0  0
    0.4512   -8.1382    0.0000 O   0  0
   -1.2321  -10.1178    0.0000 N   0  0
   -2.6451  -10.6212    0.0000 C   0  0
   -0.0893  -11.0908    0.0000 O   0  0
   -0.3594  -12.5662    0.0000 C   0  0
  1  2  1  0
  2  3  1  0
  3  4  2  0
  3  5  1  0
  5  6  1  0
  7  6  1  1
  7  8  1  0
  8  9  1  0
  9 10  1  1
 10 11  1  0
 11 12  2  0
 12 13  1  0
 13 14  2  0
 14 15  1  0
 15 16  1  0
 16 17  2  0
 16 18  1  0
 18 19  1  0
 19 20  2  0
 20 21  1  0
 21 22  2  0
 22 23  1  0
 23 24  2  0
 24 19  1  0
 14 25  1  0
 25 26  2  0
 26 27  1  0
 27 28  2  0
 28 13  1  0
 28 10  1  0
  9 29  1  0
 29 30  1  6
 30 31  1  0
 31 32  1  0
 31 33  1  0
 31 34  1  0
 34 35  1  0
 34 36  1  0
 34 37  1  0
 29 38  1  0
 38  7  1  0
 38 39  1  6
 39 40  1  0
 40 41  2  0
 40 42  1  0
 42 43  1  0
 42 44  1  0
 44 45  1  0
M  END
> <Smiles>
CNC(=O)NC[C@H]1O[C@@H](n2cnc3c(NC(=O)Nc4ccccc4)ncnc32)[C@H](O[Si](C)(C)C(C)(C)C)[C@@H]1CC(=O)N(C)OC

> <ID>
CHEMBL1076311

> <standard_value>
22.3

> <IC50_uM>
0.0223

> <Activity>
Yes

> <pIC50>
7.651695137

> <BCI>
1

$$$$

  SciTegic03012415362D

 20 23  0  0  0  0            999 V2000
    2.5951   -3.0031    0.0000 C   0  0
    2.5973   -1.5031    0.0000 O   0  0
    1.2990   -0.7500    0.0000 C   0  0
    1.2990    0.7500    0.0000 C   0  0
    0.0000    1.5000    0.0000 C   0  0
   -1.2990    0.7500    0.0000 C   0  0
   -1.2990   -0.7500    0.0000 C   0  0
    0.0000   -1.5000    0.0000 C   0  0
   -2.5981   -1.5000    0.0000 N   0  0
   -3.8971   -0.7500    0.0000 C   0  0
   -5.1961   -1.5000    0.0000 O   0  0
   -3.8971    0.7500    0.0000 C   0  0
   -5.0114    1.7529    0.0000 C   0  0
   -6.5021    1.5956    0.0000 C   0  0
   -7.3837    2.8092    0.0000 C   0  0
   -6.7736    4.1795    0.0000 C   0  0
   -5.2818    4.3363    0.0000 C   0  0
   -4.4013    3.1233    0.0000 C   0  0
   -2.9095    2.9665    0.0000 C   0  0
   -2.5981    1.5000    0.0000 N   0  0
  1  2  1  0
  2  3  1  0
  3  4  2  0
  4  5  1  0
  5  6  2  0
  6  7  1  0
  7  8  2  0
  8  3  1  0
  7  9  1  0
  9 10  1  0
 10 11  2  0
 10 12  1  0
 12 13  2  0
 13 14  1  0
 14 15  2  0
 15 16  1  0
 16 17  2  0
 17 18  1  0
 18 13  1  0
 18 19  2  0
 19 20  1  0
 20  6  1  0
 20 12  1  0
M  END
> <Smiles>
COc1ccc2c(c1)[nH]c(=O)c1c3ccccc3cn21

> <ID>
CHEMBL406836

> <standard_value>
22.91

> <IC50_uM>
0.02291

> <Activity>
Yes

> <pIC50>
7.639974911

> <BCI>
1

$$$$

  SciTegic03012415362D

 29 32  0  0  1  0            999 V2000
    3.8983   -0.7459    0.0000 C   0  0
    2.6003   -1.4977    0.0000 O   0  0
    1.2990   -0.7500    0.0000 C   0  0
    1.2990    0.7500    0.0000 C   0  0
    0.0000    1.5000    0.0000 C   0  0
   -1.2990    0.7500    0.0000 C   0  0
   -1.2990   -0.7500    0.0000 C   0  0
    0.0000   -1.5000    0.0000 C   0  0
   -0.0031   -3.0008    0.0000 O   0  0
   -1.3039   -3.7494    0.0000 S   0  0
   -2.6016   -2.9971    0.0000 N   0  0
   -1.3070   -5.2494    0.0000 O   0  0
   -2.6044   -4.4969    0.0000 O   0  0
   -2.5981    1.5000    0.0000 C   0  0
   -2.5981    3.0000    0.0000 C   0  0
   -1.2991    3.7500    0.0000 C   0  0  2  0  0  0
    0.0000    3.0000    0.0000 C   0  0  2  0  0  0
    1.2990    3.7500    0.0000 C   0  0
    1.2990    5.2500    0.0000 C   0  0
    0.0000    6.0000    0.0000 C   0  0  2  0  0  0
    1.2211    6.8711    0.0000 C   0  0
   -0.2851    7.4666    0.0000 C   0  0  1  0  0  0
    0.7337    8.5650    0.0000 C   0  0
    2.1972    8.2322    0.0000 C   0  0  3  0  0  0
    2.6400    6.7990    0.0000 C   0  0
    3.2173    9.3319    0.0000 O   0  0
   -1.7759    7.6329    0.0000 C   0  0
   -2.3947    6.2665    0.0000 C   0  0
   -1.2991    5.2500    0.0000 C   0  0  1  0  0  0
  1  2  1  0
  2  3  1  0
  3  4  2  0
  4  5  1  0
  5  6  2  0
  6  7  1  0
  7  8  2  0
  8  3  1  0
  8  9  1  0
  9 10  1  0
 10 11  1  0
 10 12  2  0
 10 13  2  0
  6 14  1  0
 14 15  1  0
 16 15  1  1
 16 17  1  0
 17  5  1  0
 17 18  1  6
 18 19  1  0
 19 20  1  0
 20 21  1  6
 20 22  1  0
 22 23  1  6
 23 24  1  0
 24 25  1  4
 24 26  1  0
 22 27  1  0
 27 28  1  0
 29 28  1  6
 29 16  1  0
 29 20  1  0
M  END
> <Smiles>
COc1cc2c(cc1OS(N)(=O)=O)CC[C@@H]1[C@@H]2CC[C@]2(C)[C@@H](CC(C)O)CC[C@@H]12

> <ID>
CHEMBL1812460

> <standard_value>
23

> <IC50_uM>
0.023

> <Activity>
Yes

> <pIC50>
7.638272164

> <BCI>
1

$$$$

  SciTegic03012415362D

 40 46  0  0  0  0            999 V2000
   11.4645   -2.5777    0.0000 C   0  0
   10.9419   -1.7251    0.0000 O   0  0
    9.4415   -1.7638    0.0000 C   0  0
    8.6557   -0.4861    0.0000 C   0  0
    7.1563   -0.5278    0.0000 C   0  0
    6.4458   -1.8433    0.0000 C   0  0
    4.9531   -1.9978    0.0000 C   0  0  3  0  0  0
    3.9511   -0.8815    0.0000 C   0  0
    2.5987   -1.5004    0.0000 C   0  0
    1.2990   -0.7500    0.0000 C   0  0
    1.2990    0.7500    0.0000 C   0  0
    0.0000    1.5000    0.0000 C   0  0
   -1.2990    0.7500    0.0000 C   0  0
   -2.5981    1.5000    0.0000 C   0  0
   -3.8971    0.7500    0.0000 C   0  0
   -3.8971   -0.7500    0.0000 C   0  0
   -2.5981   -1.5000    0.0000 C   0  0
   -1.2990   -0.7500    0.0000 C   0  0
    0.0000   -1.5000    0.0000 C   0  0
    2.7343   -2.9815    0.0000 N   0  0
    4.2010   -3.2956    0.0000 N   0  0
    4.8092   -4.6676    0.0000 C   0  0
    4.1521   -5.9965    0.0000 N   0  0
    5.2383   -7.0310    0.0000 C   0  0
    5.0398   -8.5178    0.0000 O   0  0
    6.5578   -6.3177    0.0000 C   0  0
    7.9112   -6.9662    0.0000 C   0  0
    8.0423   -8.4486    0.0000 C   0  0
    6.9187   -9.4423    0.0000 O   0  0
    9.5091   -8.7626    0.0000 N   0  0
   10.2603   -7.4652    0.0000 C   0  0
   11.7280   -7.1554    0.0000 C   0  0
   12.1936   -5.7295    0.0000 C   0  0
   11.1915   -4.6133    0.0000 C   0  0
   11.5018   -3.6627    0.0000 Br  0  0
    9.7238   -4.9231    0.0000 C   0  0
    9.2582   -6.3490    0.0000 C   0  0
    6.2871   -4.8423    0.0000 S   0  0
    7.2285   -3.1249    0.0000 C   0  0
    8.7279   -3.0832    0.0000 C   0  0
  1  2  1  0
  2  3  1  0
  3  4  2  0
  4  5  1  0
  5  6  2  0
  7  6  1  4
  7  8  1  0
  8  9  1  0
  9 10  1  0
 10 11  2  0
 11 12  1  0
 12 13  2  0
 13 14  1  0
 14 15  2  0
 15 16  1  0
 16 17  2  0
 17 18  1  0
 18 13  1  0
 18 19  2  0
 19 10  1  0
  9 20  2  0
 20 21  1  0
 21  7  1  0
 21 22  1  0
 22 23  2  0
 23 24  1  0
 24 25  2  0
 24 26  1  0
 26 27  2  0
 27 28  1  0
 28 29  2  0
 28 30  1  0
 30 31  1  0
 31 32  2  0
 32 33  1  0
 33 34  2  0
 34 35  1  0
 34 36  1  0
 36 37  2  0
 37 31  1  0
 37 27  1  0
 26 38  1  0
 38 22  1  0
  6 39  1  0
 39 40  2  0
 40  3  1  0
M  END
> <Smiles>
COc1ccc(C2CC(c3ccc4ccccc4c3)=NN2C2=NC(=O)/C(=C3\C(=O)Nc4ccc(Br)cc43)S2)cc1

> <ID>
CHEMBL2172557

> <standard_value>
23.1

> <IC50_uM>
0.0231

> <Activity>
Yes

> <pIC50>
7.63638802

> <BCI>
1

$$$$

  SciTegic03012415362D

 32 35  0  0  1  0            999 V2000
    3.8983   -0.7459    0.0000 C   0  0
    2.6003   -1.4977    0.0000 O   0  0
    1.2990   -0.7500    0.0000 C   0  0
    1.2990    0.7500    0.0000 C   0  0
    0.0000    1.5000    0.0000 C   0  0
   -1.2990    0.7500    0.0000 C   0  0
   -2.5987    1.5004    0.0000 C   0  0  1  0  0  0
   -2.9445    2.9229    0.0000 C   0  0  2  0  0  0
   -2.1800    4.2143    0.0000 C   0  0
   -0.7168    4.4840    0.0000 C   0  0
   -0.2157    5.8979    0.0000 C   0  0
   -1.1896    7.0387    0.0000 C   0  0
   -2.6646    6.7657    0.0000 C   0  0
   -3.1656    5.3519    0.0000 C   0  0
   -4.3928    2.5323    0.0000 C   0  0
   -5.6930    3.2803    0.0000 O   0  0
   -4.0022    1.0841    0.0000 N   0  0
   -4.7342   -0.2260    0.0000 C   0  0
   -4.2317   -1.6265    0.0000 C   0  0
   -5.2020   -2.7704    0.0000 C   0  0
   -4.6933   -4.1824    0.0000 O   0  0
   -3.2171   -4.4486    0.0000 C   0  0
   -6.6778   -2.5021    0.0000 C   0  0
   -7.6510   -3.6447    0.0000 O   0  0
   -9.1264   -3.3743    0.0000 C   0  0
   -7.1834   -1.0899    0.0000 C   0  0
   -8.6594   -0.8184    0.0000 O   0  0
   -9.1630    0.5946    0.0000 C   0  0
   -6.2131    0.0541    0.0000 C   0  0
   -1.2990   -0.7500    0.0000 C   0  0
    0.0000   -1.5000    0.0000 C   0  0
    0.0000   -3.0000    0.0000 F   0  0
  1  2  1  0
  2  3  1  0
  3  4  2  0
  4  5  1  0
  5  6  2  0
  7  6  1  6
  7  8  1  0
  8  9  1  1
  9 10  2  0
 10 11  1  0
 11 12  2  0
 12 13  1  0
 13 14  2  0
 14  9  1  0
  8 15  1  0
 15 16  2  0
 15 17  1  0
 17  7  1  0
 17 18  1  0
 18 19  2  0
 19 20  1  0
 20 21  1  0
 21 22  1  0
 20 23  2  0
 23 24  1  0
 24 25  1  0
 23 26  1  0
 26 27  1  0
 27 28  1  0
 26 29  2  0
 29 18  1  0
  6 30  1  0
 30 31  2  0
 31  3  1  0
 31 32  1  0
M  END
> <Smiles>
COc1ccc([C@H]2[C@H](c3ccccc3)C(=O)N2c2cc(OC)c(OC)c(OC)c2)cc1F

> <ID>
CHEMBL4784818

> <standard_value>
23.4

> <IC50_uM>
0.0234

> <Activity>
Yes

> <pIC50>
7.630784143

> <BCI>
1

$$$$

  SciTegic03012415362D

 38 43  0  0  1  0            999 V2000
   -2.6148   -5.9788    0.0000 C   0  0
   -1.3117   -5.2360    0.0000 C   0  0
   -1.3039   -3.7360    0.0000 C   0  0
   -0.0156   -5.9928    0.0000 C   0  0
    1.2883   -5.2495    0.0000 C   0  0  2  0  0  0
    1.2935   -3.7495    0.0000 O   0  0
    2.5951   -3.0039    0.0000 C   0  0  1  0  0  0
    2.5973   -1.5031    0.0000 O   0  0
    1.2990   -0.7500    0.0000 C   0  0  1  0  0  0
    1.2990    0.7500    0.0000 C   0  0
    0.0000    1.5000    0.0000 C   0  0
   -1.2990    0.7500    0.0000 C   0  0  1  0  0  0
   -1.2990    2.2500    0.0000 C   0  0
   -1.2990   -0.7500    0.0000 C   0  0  2  0  0  0
   -2.5981   -1.5000    0.0000 C   0  0
   -3.8971   -0.7500    0.0000 C   0  0
   -3.8971    0.7500    0.0000 C   0  0  2  0  0  0
   -2.5981    1.5000    0.0000 C   0  0  2  0  0  0
   -2.5981    3.0000    0.0000 C   0  0
   -3.8971    3.7500    0.0000 C   0  0
   -5.1962    3.0000    0.0000 C   0  0  2  0  0  0
   -5.3512    4.4919    0.0000 C   0  0
   -6.6112    3.4635    0.0000 C   0  0  1  0  0  0
   -7.0732    4.8913    0.0000 C   0  0
   -6.2824    6.1452    0.0000 C   0  0
   -7.2559    7.2864    0.0000 C   0  0
   -6.9049    8.7447    0.0000 O   0  0
   -8.6421    6.7131    0.0000 O   0  0
   -8.5252    5.2177    0.0000 C   0  0
   -7.4928    2.2500    0.0000 C   0  0
   -6.6111    1.0364    0.0000 C   0  0
   -5.1962    1.5000    0.0000 C   0  0  2  0  0  0
   -5.3512    0.0080    0.0000 O   0  0
    0.0000   -1.5000    0.0000 C   0  0
    3.8915   -3.7585    0.0000 C   0  0
    3.8864   -5.2585    0.0000 C   0  0
    2.5847   -6.0040    0.0000 C   0  0  1  0  0  0
    2.5796   -7.5040    0.0000 O   0  0
  1  2  1  0
  2  3  1  0
  2  4  1  0
  5  4  1  6
  5  6  1  0
  6  7  1  0
  7  8  1  1
  9  8  1  6
  9 10  1  0
 10 11  1  0
 11 12  1  0
 12 13  1  6
 12 14  1  0
 14 15  1  1
 15 16  1  0
 17 16  1  1
 17 18  1  0
 18 12  1  0
 18 19  1  6
 19 20  1  0
 20 21  1  0
 21 22  1  6
 21 23  1  0
 23 24  1  6
 24 25  2  0
 25 26  1  0
 26 27  2  0
 26 28  1  0
 28 29  1  0
 29 24  1  0
 23 30  1  0
 30 31  1  0
 31 32  1  0
 32 17  1  0
 32 21  1  0
 32 33  1  6
 14 34  1  0
 34  9  1  0
  7 35  1  0
 35 36  1  0
 36 37  1  0
 37  5  1  0
 37 38  1  1
M  END
> <Smiles>
CC(C)C[C@@H]1O[C@@H](O[C@H]2CC[C@@]3(C)[C@H](CC[C@@H]4[C@@H]3CC[C@]3(C)[C@@H](C5=CC(=O)OC5)CC[C@]43O)C2)CC[C@H]1O

> <ID>
CHEMBL1818812

> <standard_value>
23.8

> <IC50_uM>
0.0238

> <Activity>
Yes

> <pIC50>
7.623423043

> <BCI>
1

$$$$

  SciTegic03012415362D

 30 34  0  0  0  0            999 V2000
    2.5951   -3.0031    0.0000 C   0  0
    2.5973   -1.5031    0.0000 O   0  0
    1.2990   -0.7500    0.0000 C   0  0
    1.2990    0.7500    0.0000 C   0  0
    0.0000    1.5000    0.0000 N   0  0
   -1.2990    0.7500    0.0000 C   0  0
   -1.2990   -0.7500    0.0000 C   0  0
    0.0000   -1.5000    0.0000 C   0  0
   -2.7248   -1.2135    0.0000 C   0  0
   -3.1882   -2.6402    0.0000 O   0  0
   -3.6065    0.0000    0.0000 C   0  0
   -2.7248    1.2135    0.0000 C   0  0
   -3.3339    2.5831    0.0000 N   0  0
   -2.4537    3.7988    0.0000 C   0  0
   -3.0656    5.1692    0.0000 C   0  0
   -2.1854    6.3848    0.0000 C   0  0
   -2.7972    7.7553    0.0000 N   0  0
   -2.0423    9.0367    0.0000 C   0  0
   -3.0494   10.1483    0.0000 C   0  0
   -4.4179    9.5340    0.0000 N   0  0
   -4.2565    8.0427    0.0000 C   0  0
   -4.8257    2.7399    0.0000 C   0  0
   -5.4358    4.1102    0.0000 O   0  0
   -5.7073    1.5263    0.0000 C   0  0
   -7.1991    1.6831    0.0000 C   0  0
   -8.0808    0.4696    0.0000 C   0  0
   -9.5726    0.6264    0.0000 F   0  0
   -7.4707   -0.9007    0.0000 C   0  0
   -5.9789   -1.0575    0.0000 C   0  0
   -5.0972    0.1560    0.0000 C   0  0
  1  2  1  0
  2  3  1  0
  3  4  2  0
  4  5  1  0
  5  6  2  0
  6  7  1  0
  7  8  2  0
  8  3  1  0
  7  9  1  0
  9 10  2  0
  9 11  1  0
 11 12  2  0
 12  6  1  0
 12 13  1  0
 13 14  1  0
 14 15  1  0
 15 16  1  0
 16 17  1  0
 17 18  1  0
 18 19  2  0
 19 20  1  0
 20 21  2  0
 21 17  1  0
 13 22  1  0
 22 23  2  0
 22 24  1  0
 24 25  2  0
 25 26  1  0
 26 27  1  0
 26 28  2  0
 28 29  1  0
 29 30  2  0
 30 11  1  0
 30 24  1  0
M  END
> <Smiles>
COc1cnc2c(c1)C(=O)c1c-2n(CCCn2ccnc2)c(=O)c2cc(F)ccc12

> <ID>
CHEMBL4079995

> <standard_value>
24

> <IC50_uM>
0.024

> <Activity>
Yes

> <pIC50>
7.619788758

> <BCI>
1

$$$$

  SciTegic03012415362D

 73 80  0  0  1  0            999 V2000
    3.9075   -3.7444    0.0000 C   0  0
    2.6060   -2.9986    0.0000 O   0  0
    2.6003   -1.4977    0.0000 C   0  0  1  0  0  0
    1.2990   -0.7500    0.0000 C   0  0  2  0  0  0
    1.2990    0.7500    0.0000 C   0  0
    0.0000    1.5000    0.0000 C   0  0
    0.0000    3.0000    0.0000 C   0  0
   -1.2991    3.7500    0.0000 C   0  0
   -1.2991    5.2500    0.0000 C   0  0
   -2.5981    6.0000    0.0000 C   0  0
   -2.5951    7.5008    0.0000 O   0  0
   -1.2942    8.2494    0.0000 C   0  0  1  0  0  0
   -1.2890    9.7494    0.0000 C   0  0
    0.0126   10.4949    0.0000 C   0  0  1  0  0  0
    0.0147   11.9958    0.0000 O   0  0
   -1.2835   12.7488    0.0000 C   0  0  1  0  0  0
   -1.2836   14.2488    0.0000 C   0  0
   -2.5827   14.9988    0.0000 C   0  0  1  0  0  0
   -2.5827   16.4988    0.0000 O   0  0
   -3.8817   14.2488    0.0000 C   0  0  2  0  0  0
   -5.1807   14.9988    0.0000 O   0  0
   -3.8817   12.7488    0.0000 C   0  0  1  0  0  0
   -5.1807   11.9988    0.0000 C   0  0
   -2.5826   11.9988    0.0000 O   0  0
    1.3091    9.7405    0.0000 C   0  0  2  0  0  0
    2.6107   10.4860    0.0000 O   0  0
    1.3039    8.2405    0.0000 C   0  0  1  0  0  0
    2.6004    7.4860    0.0000 C   0  0
    0.0023    7.4949    0.0000 O   0  0
   -3.8972    5.2500    0.0000 C   0  0
   -5.1962    6.0000    0.0000 C   0  0
   -3.8971    3.7500    0.0000 C   0  0
   -5.1962    3.0000    0.0000 O   0  0
   -2.5981    3.0000    0.0000 C   0  0
   -2.5981    1.5000    0.0000 C   0  0
   -3.8971    0.7500    0.0000 O   0  0
   -1.2990    0.7500    0.0000 C   0  0
   -1.2990   -0.7500    0.0000 C   0  0
   -2.5981   -1.5000    0.0000 O   0  0
    0.0000   -1.5000    0.0000 C   0  0  1  0  0  0
   -0.0031   -3.0008    0.0000 O   0  0
   -1.3039   -3.7494    0.0000 C   0  0  1  0  0  0
   -1.3092   -5.2494    0.0000 C   0  0
   -2.6108   -5.9949    0.0000 C   0  0  1  0  0  0
   -2.6129   -7.4958    0.0000 O   0  0
   -1.3147   -8.2488    0.0000 C   0  0  1  0  0  0
   -1.3146   -9.7488    0.0000 C   0  0
   -0.0155  -10.4988    0.0000 C   0  0  1  0  0  0
   -0.0186  -11.9997    0.0000 O   0  0
   -1.3194  -12.7482    0.0000 C   0  0  1  0  0  0
   -1.3247  -14.2483    0.0000 C   0  0
   -2.6263  -14.9938    0.0000 C   0  0  2  0  0  0
   -2.6315  -16.4938    0.0000 O   0  0
   -3.9228  -14.2393    0.0000 C   0  0  2  0  0  0
   -5.2244  -14.9848    0.0000 O   0  0
   -3.9176  -12.7393    0.0000 C   0  0  1  0  0  0
   -5.2140  -11.9848    0.0000 C   0  0
   -2.6160  -11.9938    0.0000 O   0  0
    1.2835   -9.7488    0.0000 C   0  0  2  0  0  0
    2.5825  -10.4988    0.0000 O   0  0
    1.2835   -8.2488    0.0000 C   0  0  1  0  0  0
    2.5825   -7.4988    0.0000 C   0  0
   -0.0155   -7.4988    0.0000 O   0  0
   -3.9072   -5.2404    0.0000 C   0  0  2  0  0  0
   -5.2089   -5.9859    0.0000 O   0  0
   -3.9020   -3.7404    0.0000 C   0  0  1  0  0  0
   -5.1985   -2.9860    0.0000 C   0  0
   -2.6004   -2.9949    0.0000 O   0  0
    3.8990   -0.7455    0.0000 C   0  0  1  0  0  0
    3.8964    0.7545    0.0000 O   0  0
    5.2003   -1.4932    0.0000 C   0  0
    5.2029   -2.9932    0.0000 C   0  0
    6.4983   -0.7414    0.0000 O   0  0
  1  2  1  0
  3  2  1  1
  3  4  1  0
  4  5  1  1
  5  6  1  0
  6  7  2  0
  7  8  1  0
  8  9  2  0
  9 10  1  0
 10 11  1  0
 12 11  1  1
 12 13  1  0
 13 14  1  0
 14 15  1  1
 16 15  1  6
 16 17  1  0
 17 18  1  0
 18 19  1  6
 18 20  1  0
 20 21  1  1
 20 22  1  0
 22 23  1  6
 22 24  1  0
 24 16  1  0
 14 25  1  0
 25 26  1  6
 25 27  1  0
 27 28  1  1
 27 29  1  0
 29 12  1  0
 10 30  2  0
 30 31  1  0
 30 32  1  0
 32 33  1  0
 32 34  2  0
 34  8  1  0
 34 35  1  0
 35 36  1  0
 35 37  2  0
 37  6  1  0
 37 38  1  0
 38 39  2  0
 38 40  1  0
 40  4  1  0
 40 41  1  6
 42 41  1  1
 42 43  1  0
 43 44  1  0
 44 45  1  1
 46 45  1  6
 46 47  1  0
 47 48  1  0
 48 49  1  6
 50 49  1  1
 50 51  1  0
 51 52  1  0
 52 53  1  6
 52 54  1  0
 54 55  1  6
 54 56  1  0
 56 57  1  1
 56 58  1  0
 58 50  1  0
 48 59  1  0
 59 60  1  1
 59 61  1  0
 61 62  1  6
 61 63  1  0
 63 46  1  0
 44 64  1  0
 64 65  1  6
 64 66  1  0
 66 67  1  1
 66 68  1  0
 68 42  1  0
  3 69  1  0
 69 70  1  1
 69 71  1  0
 71 72  1  0
 71 73  2  0
M  END
> <Smiles>
CO[C@@H]([C@@H]1Cc2cc3cc(O[C@H]4C[C@@H](O[C@H]5C[C@@H](O)[C@H](O)[C@@H](C)O5)[C@H](O)[C@@H](C)O4)c(C)c(O)c3c(O)c2C(=O)[C@H]1O[C@H]1C[C@@H](O[C@H]2C[C@@H](O[C@H]3C[C@H](O)[C@H](O)[C@@H](C)O3)[C@H](O)[C
@@H](C)O2)[C@H](O)[C@@H](C)O1)[C@@H](O)C(C)=O

> <ID>
CHEMBL2152293

> <standard_value>
25.12

> <IC50_uM>
0.02512

> <Activity>
Yes

> <pIC50>
7.599980365

> <BCI>
1

$$$$

  SciTegic03012415362D

 28 31  0  0  0  0            999 V2000
    2.5951   -3.0031    0.0000 C   0  0
    2.5973   -1.5031    0.0000 O   0  0
    1.2990   -0.7500    0.0000 C   0  0
    1.2990    0.7500    0.0000 C   0  0
    0.0000    1.5000    0.0000 C   0  0
   -1.2990    0.7500    0.0000 C   0  0
   -1.2990   -0.7500    0.0000 C   0  0
    0.0000   -1.5000    0.0000 C   0  0
   -2.7248   -1.2135    0.0000 C   0  0
   -3.1882   -2.6402    0.0000 O   0  0
   -3.6065    0.0000    0.0000 C   0  0
   -2.7248    1.2135    0.0000 C   0  0
   -3.3339    2.5831    0.0000 N   0  0
   -2.4537    3.7988    0.0000 C   0  0
   -3.0656    5.1692    0.0000 C   0  0
   -2.1854    6.3848    0.0000 C   0  0
   -2.7969    7.7545    0.0000 Cl  0  0
   -4.8257    2.7399    0.0000 C   0  0
   -5.4358    4.1102    0.0000 O   0  0
   -5.7073    1.5263    0.0000 C   0  0
   -7.1991    1.6831    0.0000 C   0  0
   -8.0808    0.4696    0.0000 C   0  0
   -9.5737    0.6234    0.0000 N   0  3
  -10.4537   -0.5914    0.0000 O   0  0
  -10.1862    1.9927    0.0000 O   0  5
   -7.4707   -0.9007    0.0000 C   0  0
   -5.9789   -1.0575    0.0000 C   0  0
   -5.0972    0.1560    0.0000 C   0  0
  1  2  1  0
  2  3  1  0
  3  4  2  0
  4  5  1  0
  5  6  2  0
  6  7  1  0
  7  8  2  0
  8  3  1  0
  7  9  1  0
  9 10  2  0
  9 11  1  0
 11 12  2  0
 12  6  1  0
 12 13  1  0
 13 14  1  0
 14 15  1  0
 15 16  1  0
 16 17  1  0
 13 18  1  0
 18 19  2  0
 18 20  1  0
 20 21  2  0
 21 22  1  0
 22 23  1  0
 23 24  2  0
 23 25  1  0
 22 26  2  0
 26 27  1  0
 27 28  2  0
 28 11  1  0
 28 20  1  0
M  CHG  2  23   1  25  -1
M  END
> <Smiles>
COc1ccc2c(c1)C(=O)c1c-2n(CCCCl)c(=O)c2cc([N+](=O)[O-])ccc12

> <ID>
CHEMBL218810

> <standard_value>
27

> <IC50_uM>
0.027

> <Activity>
Yes

> <pIC50>
7.568636236

> <BCI>
1

$$$$

  SciTegic03012415362D

 37 42  0  0  1  0            999 V2000
   -1.3109   -5.2364    0.0000 C   0  0
   -0.0156   -5.9928    0.0000 C   0  0
   -0.0234   -7.4927    0.0000 C   0  0
    1.2883   -5.2495    0.0000 C   0  0  2  0  0  0
    1.2935   -3.7495    0.0000 O   0  0
    2.5951   -3.0039    0.0000 C   0  0  1  0  0  0
    2.5973   -1.5031    0.0000 O   0  0
    1.2990   -0.7500    0.0000 C   0  0  1  0  0  0
    1.2990    0.7500    0.0000 C   0  0
    0.0000    1.5000    0.0000 C   0  0
   -1.2990    0.7500    0.0000 C   0  0  1  0  0  0
   -1.2990    2.2500    0.0000 C   0  0
   -1.2990   -0.7500    0.0000 C   0  0  2  0  0  0
   -2.5981   -1.5000    0.0000 C   0  0
   -3.8971   -0.7500    0.0000 C   0  0
   -3.8971    0.7500    0.0000 C   0  0  2  0  0  0
   -2.5981    1.5000    0.0000 C   0  0  2  0  0  0
   -2.5981    3.0000    0.0000 C   0  0
   -3.8971    3.7500    0.0000 C   0  0
   -5.1962    3.0000    0.0000 C   0  0  2  0  0  0
   -5.3512    4.4919    0.0000 C   0  0
   -6.6112    3.4635    0.0000 C   0  0  1  0  0  0
   -7.0732    4.8913    0.0000 C   0  0
   -6.2824    6.1452    0.0000 C   0  0
   -7.2559    7.2864    0.0000 C   0  0
   -6.9049    8.7447    0.0000 O   0  0
   -8.6421    6.7131    0.0000 O   0  0
   -8.5252    5.2177    0.0000 C   0  0
   -7.4928    2.2500    0.0000 C   0  0
   -6.6111    1.0364    0.0000 C   0  0
   -5.1962    1.5000    0.0000 C   0  0  2  0  0  0
   -5.3512    0.0080    0.0000 O   0  0
    0.0000   -1.5000    0.0000 C   0  0
    3.8915   -3.7585    0.0000 C   0  0
    3.8864   -5.2585    0.0000 C   0  0
    2.5847   -6.0040    0.0000 C   0  0  1  0  0  0
    2.5796   -7.5040    0.0000 O   0  0
  1  2  1  0
  2  3  1  0
  4  2  1  6
  4  5  1  0
  5  6  1  0
  6  7  1  1
  8  7  1  6
  8  9  1  0
  9 10  1  0
 10 11  1  0
 11 12  1  6
 11 13  1  0
 13 14  1  1
 14 15  1  0
 16 15  1  1
 16 17  1  0
 17 11  1  0
 17 18  1  6
 18 19  1  0
 19 20  1  0
 20 21  1  6
 20 22  1  0
 22 23  1  6
 23 24  2  0
 24 25  1  0
 25 26  2  0
 25 27  1  0
 27 28  1  0
 28 23  1  0
 22 29  1  0
 29 30  1  0
 30 31  1  0
 31 16  1  0
 31 20  1  0
 31 32  1  6
 13 33  1  0
 33  8  1  0
  6 34  1  0
 34 35  1  0
 35 36  1  0
 36  4  1  0
 36 37  1  1
M  END
> <Smiles>
CC(C)[C@@H]1O[C@@H](O[C@H]2CC[C@@]3(C)[C@H](CC[C@@H]4[C@@H]3CC[C@]3(C)[C@@H](C5=CC(=O)OC5)CC[C@]43O)C2)CC[C@H]1O

> <ID>
CHEMBL1818694

> <standard_value>
27.6

> <IC50_uM>
0.0276

> <Activity>
Yes

> <pIC50>
7.559090918

> <BCI>
1

$$$$

  SciTegic03012415362D

 28 32  0  0  0  0            999 V2000
    2.5951   -3.0031    0.0000 C   0  0
    2.5973   -1.5031    0.0000 O   0  0
    1.2990   -0.7500    0.0000 C   0  0
    1.2990    0.7500    0.0000 C   0  0
    0.0000    1.5000    0.0000 C   0  0
   -1.2990    0.7500    0.0000 C   0  0
   -1.2990   -0.7500    0.0000 C   0  0
    0.0000   -1.5000    0.0000 C   0  0
   -2.5981   -1.5000    0.0000 O   0  0
   -3.8971   -0.7500    0.0000 C   0  0
   -3.8971    0.7500    0.0000 C   0  0
   -5.3229    1.2135    0.0000 C   0  0
   -5.7863    2.6401    0.0000 O   0  0
   -6.2045    0.0000    0.0000 O   0  0
   -5.3229   -1.2135    0.0000 C   0  0
   -2.5981    1.5000    0.0000 C   0  0  3  0  0  0
   -2.5981    3.0007    0.0000 C   0  0
   -3.8959    3.7529    0.0000 C   0  0
   -3.8936    5.2529    0.0000 C   0  0
   -5.1937    6.0027    0.0000 O   0  0
   -6.4928    5.2529    0.0000 C   0  0
   -2.5933    6.0009    0.0000 C   0  0
   -1.2955    5.2488    0.0000 C   0  0
   -1.2979    3.7488    0.0000 C   0  0
    0.0047    5.9967    0.0000 O   0  0
    0.0071    7.4967    0.0000 C   0  0
   -1.2907    8.2488    0.0000 C   0  0
   -2.5910    7.5009    0.0000 O   0  0
  1  2  1  0
  2  3  1  0
  3  4  2  0
  4  5  1  0
  5  6  2  0
  6  7  1  0
  7  8  2  0
  8  3  1  0
  7  9  1  0
  9 10  1  0
 10 11  2  0
 11 12  1  0
 12 13  2  0
 12 14  1  0
 14 15  1  0
 15 10  1  0
 11 16  1  0
 16  6  1  0
 16 17  1  4
 17 18  2  0
 18 19  1  0
 19 20  1  0
 20 21  1  0
 19 22  2  0
 22 23  1  0
 23 24  2  0
 24 17  1  0
 23 25  1  0
 25 26  1  0
 26 27  1  0
 27 28  1  0
 28 22  1  0
M  END
> <Smiles>
COc1ccc2c(c1)OC1=C(C(=O)OC1)C2c1cc(OC)c2c(c1)OCCO2

> <ID>
CHEMBL2010923

> <standard_value>
29.3

> <IC50_uM>
0.0293

> <Activity>
Yes

> <pIC50>
7.53313238

> <BCI>
1

$$$$

  SciTegic03012415362D

 22 24  0  0  0  0            999 V2000
    1.2738   -8.2484    0.0000 C   0  0
    2.5765   -7.5048    0.0000 O   0  0
    2.5847   -6.0040    0.0000 C   0  0
    3.8864   -5.2585    0.0000 C   0  0
    3.8915   -3.7585    0.0000 C   0  0
    2.5951   -3.0039    0.0000 C   0  0
    2.5973   -1.5031    0.0000 N   0  0
    3.8976   -0.7553    0.0000 C   0  0
    1.2990   -0.7500    0.0000 C   0  0
    1.2990    0.7500    0.0000 C   0  0
    0.0000    1.5000    0.0000 C   0  0
   -1.2990    0.7500    0.0000 C   0  0
   -2.5981    1.5000    0.0000 N   0  0
   -3.8971    0.7500    0.0000 C   0  0
   -5.1962    1.5000    0.0000 N   0  0
   -3.8971   -0.7500    0.0000 N   0  0
   -2.5981   -1.5000    0.0000 C   0  0
   -2.5981   -3.0000    0.0000 N   0  0
   -1.2990   -0.7500    0.0000 C   0  0
    0.0000   -1.5000    0.0000 N   0  0
    1.2935   -3.7495    0.0000 C   0  0
    1.2883   -5.2495    0.0000 C   0  0
  1  2  1  0
  2  3  1  0
  3  4  2  0
  4  5  1  0
  5  6  2  0
  6  7  1  0
  7  8  1  0
  7  9  1  0
  9 10  2  0
 10 11  1  0
 11 12  2  0
 12 13  1  0
 13 14  2  0
 14 15  1  0
 14 16  1  0
 16 17  2  0
 17 18  1  0
 17 19  1  0
 19 12  1  0
 19 20  2  0
 20  9  1  0
  6 21  1  0
 21 22  2  0
 22  3  1  0
M  END
> <Smiles>
COc1ccc(N(C)c2ccc3nc(N)nc(N)c3n2)cc1

> <ID>
CHEMBL141160

> <standard_value>
30

> <IC50_uM>
0.03

> <Activity>
Yes

> <pIC50>
7.522878745

> <BCI>
1

$$$$

  SciTegic03012415362D

 26 29  0  0  0  0            999 V2000
    2.5951   -3.0031    0.0000 C   0  0
    2.5973   -1.5031    0.0000 O   0  0
    1.2990   -0.7500    0.0000 C   0  0
    1.2990    0.7500    0.0000 C   0  0
    0.0000    1.5000    0.0000 C   0  0
   -1.2990    0.7500    0.0000 C   0  0
   -1.2990   -0.7500    0.0000 C   0  0
    0.0000   -1.5000    0.0000 C   0  0
   -2.7248   -1.2135    0.0000 C   0  0
   -3.1882   -2.6402    0.0000 O   0  0
   -3.6065    0.0000    0.0000 C   0  0
   -2.7248    1.2135    0.0000 C   0  0
   -3.3339    2.5831    0.0000 N   0  0
   -2.4537    3.7988    0.0000 C   0  0
   -3.0656    5.1692    0.0000 C   0  0
   -2.1854    6.3848    0.0000 C   0  0
   -2.7969    7.7545    0.0000 N   0  0
   -4.8257    2.7399    0.0000 C   0  0
   -5.4358    4.1102    0.0000 O   0  0
   -5.7073    1.5263    0.0000 C   0  0
   -7.1991    1.6831    0.0000 C   0  0
   -8.0808    0.4696    0.0000 C   0  0
   -9.5726    0.6264    0.0000 N   0  0
   -7.4707   -0.9007    0.0000 C   0  0
   -5.9789   -1.0575    0.0000 C   0  0
   -5.0972    0.1560    0.0000 C   0  0
  1  2  1  0
  2  3  1  0
  3  4  2  0
  4  5  1  0
  5  6  2  0
  6  7  1  0
  7  8  2  0
  8  3  1  0
  7  9  1  0
  9 10  2  0
  9 11  1  0
 11 12  2  0
 12  6  1  0
 12 13  1  0
 13 14  1  0
 14 15  1  0
 15 16  1  0
 16 17  1  0
 13 18  1  0
 18 19  2  0
 18 20  1  0
 20 21  2  0
 21 22  1  0
 22 23  1  0
 22 24  2  0
 24 25  1  0
 25 26  2  0
 26 11  1  0
 26 20  1  0
M  END
> <Smiles>
COc1ccc2c(c1)C(=O)c1c-2n(CCCN)c(=O)c2cc(N)ccc12.Cl.Cl

> <ID>
CHEMBL3217227

> <standard_value>
30

> <IC50_uM>
0.03

> <Activity>
Yes

> <pIC50>
7.522878745

> <BCI>
1

> <RemovedSalts>
HCl
HCl

$$$$

  SciTegic03012415362D

 27 30  0  0  0  0            999 V2000
    3.8912   -5.2570    0.0000 N   0  0
    3.8933   -3.7570    0.0000 C   0  0
    2.5951   -3.0039    0.0000 C   0  0
    2.5973   -1.5031    0.0000 C   0  0
    1.2990   -0.7500    0.0000 N   0  0
    1.2990    0.7500    0.0000 C   0  0
    0.0000    1.5000    0.0000 C   0  0
   -1.2990    0.7500    0.0000 C   0  0
   -2.5981    1.5000    0.0000 C   0  0
   -3.8971    0.7500    0.0000 C   0  0
   -3.8971   -0.7500    0.0000 C   0  0
   -5.1953   -1.5031    0.0000 N   0  3
   -5.1932   -3.0031    0.0000 O   0  0
   -6.4957   -0.7554    0.0000 O   0  5
   -2.5981   -1.5000    0.0000 C   0  0
   -1.2990   -0.7500    0.0000 C   0  0
    0.0000   -1.5000    0.0000 C   0  0
    0.0000   -3.0000    0.0000 O   0  0
    0.3114    2.9665    0.0000 C   0  0
   -0.6924    4.0811    0.0000 O   0  0
    1.8032    3.1233    0.0000 C   0  0
    2.6837    4.3363    0.0000 C   0  0
    4.1755    4.1795    0.0000 C   0  0
    5.0572    5.3931    0.0000 O   0  0
    4.7856    2.8092    0.0000 C   0  0
    3.9040    1.5957    0.0000 C   0  0
    2.4133    1.7530    0.0000 C   0  0
  1  2  1  0
  2  3  1  0
  3  4  1  0
  4  5  1  0
  5  6  1  0
  6  7  2  0
  7  8  1  0
  8  9  2  0
  9 10  1  0
 10 11  2  0
 11 12  1  0
 12 13  2  0
 12 14  1  0
 11 15  1  0
 15 16  2  0
 16  8  1  0
 16 17  1  0
 17  5  1  0
 17 18  2  0
  7 19  1  0
 19 20  2  0
 19 21  1  0
 21 22  2  0
 22 23  1  0
 23 24  1  0
 23 25  2  0
 25 26  1  0
 26 27  2  0
 27 21  1  0
 27  6  1  0
M  CHG  2  12   1  14  -1
M  END
> <Smiles>
Br.NCCCn1c2c(c3ccc([N+](=O)[O-])cc3c1=O)C(=O)c1cc(O)ccc1-2

> <ID>
CHEMBL3422402

> <standard_value>
30

> <IC50_uM>
0.03

> <Activity>
Yes

> <pIC50>
7.522878745

> <BCI>
1

> <RemovedSalts>
HBr

$$$$

  SciTegic03012415362D

 22 23  0  0  0  0            999 V2000
    3.8976   -0.7553    0.0000 C   0  0
    2.5973   -1.5031    0.0000 C   0  0
    1.2990   -0.7500    0.0000 C   0  0
    1.2990    0.7500    0.0000 C   0  0
    0.0000    1.5000    0.0000 C   0  0
   -1.2990    0.7500    0.0000 C   0  0
   -2.5973    1.5031    0.0000 O   0  0
   -2.5951    3.0031    0.0000 C   0  0
   -1.2990   -0.7500    0.0000 C   0  0
   -2.5981   -1.5000    0.0000 O   0  0
    0.0000   -1.5000    0.0000 C   0  0
    2.5951   -3.0039    0.0000 C   0  0
    1.2935   -3.7495    0.0000 C   0  0
    1.2883   -5.2495    0.0000 C   0  0
   -0.0133   -5.9950    0.0000 F   0  0
    2.5847   -6.0040    0.0000 C   0  0
    2.5796   -7.5040    0.0000 F   0  0
    3.8864   -5.2585    0.0000 C   0  0
    5.1851   -6.0107    0.0000 O   0  0
    6.4856   -5.2633    0.0000 C   0  0
    3.8915   -3.7585    0.0000 C   0  0
    5.1932   -3.0130    0.0000 F   0  0
  1  2  2  0
  2  3  1  0
  3  4  2  0
  4  5  1  0
  5  6  2  0
  6  7  1  0
  7  8  1  0
  6  9  1  0
  9 10  1  0
  9 11  2  0
 11  3  1  0
  2 12  1  0
 12 13  2  0
 13 14  1  0
 14 15  1  0
 14 16  2  0
 16 17  1  0
 16 18  1  0
 18 19  1  0
 19 20  1  0
 18 21  2  0
 21 12  1  0
 21 22  1  0
M  END
> <Smiles>
C=C(c1ccc(OC)c(O)c1)c1cc(F)c(F)c(OC)c1F

> <ID>
CHEMBL2386785

> <standard_value>
31

> <IC50_uM>
0.031

> <Activity>
Yes

> <pIC50>
7.508638306

> <BCI>
1

$$$$

  SciTegic03012415362D

 32 36  0  0  0  0            999 V2000
    2.5951   -3.0031    0.0000 C   0  0
    2.5973   -1.5031    0.0000 O   0  0
    1.2990   -0.7500    0.0000 C   0  0
    1.2990    0.7500    0.0000 C   0  0
    0.0000    1.5000    0.0000 N   0  0
   -1.2990    0.7500    0.0000 C   0  0
   -1.2990   -0.7500    0.0000 C   0  0
    0.0000   -1.5000    0.0000 C   0  0
   -2.7248   -1.2135    0.0000 C   0  0
   -3.1882   -2.6402    0.0000 O   0  0
   -3.6065    0.0000    0.0000 C   0  0
   -2.7248    1.2135    0.0000 C   0  0
   -3.3339    2.5831    0.0000 N   0  0
   -2.4537    3.7988    0.0000 C   0  0
   -3.0656    5.1692    0.0000 C   0  0
   -2.1854    6.3848    0.0000 C   0  0
   -2.7972    7.7553    0.0000 N   0  0
   -2.0423    9.0367    0.0000 C   0  0
   -3.0494   10.1483    0.0000 C   0  0
   -4.4179    9.5340    0.0000 C   0  0
   -4.2565    8.0427    0.0000 C   0  0
   -4.8257    2.7399    0.0000 C   0  0
   -5.4358    4.1102    0.0000 O   0  0
   -5.7073    1.5263    0.0000 C   0  0
   -7.1991    1.6831    0.0000 C   0  0
   -8.0808    0.4696    0.0000 C   0  0
   -9.5737    0.6234    0.0000 N   0  3
  -10.4537   -0.5914    0.0000 O   0  0
  -10.1862    1.9927    0.0000 O   0  5
   -7.4707   -0.9007    0.0000 C   0  0
   -5.9789   -1.0575    0.0000 C   0  0
   -5.0972    0.1560    0.0000 C   0  0
  1  2  1  0
  2  3  1  0
  3  4  2  0
  4  5  1  0
  5  6  2  0
  6  7  1  0
  7  8  2  0
  8  3  1  0
  7  9  1  0
  9 10  2  0
  9 11  1  0
 11 12  2  0
 12  6  1  0
 12 13  1  0
 13 14  1  0
 14 15  1  0
 15 16  1  0
 16 17  1  0
 17 18  1  0
 18 19  1  0
 19 20  1  0
 20 21  1  0
 21 17  1  0
 13 22  1  0
 22 23  2  0
 22 24  1  0
 24 25  2  0
 25 26  1  0
 26 27  1  0
 27 28  2  0
 27 29  1  0
 26 30  2  0
 30 31  1  0
 31 32  2  0
 32 11  1  0
 32 24  1  0
M  CHG  2  27   1  29  -1
M  END
> <Smiles>
COc1cnc2c(c1)C(=O)c1c-2n(CCCN2CCCC2)c(=O)c2cc([N+](=O)[O-])ccc12

> <ID>
CHEMBL4081000

> <standard_value>
31

> <IC50_uM>
0.031

> <Activity>
Yes

> <pIC50>
7.508638306

> <BCI>
1

$$$$

  SciTegic03012415362D

 40 45  0  0  1  0            999 V2000
    2.5981    0.0000    0.0000 C   0  0
    1.2990   -0.7500    0.0000 C   0  0  2  0  0  0
    1.2990    0.7500    0.0000 C   0  0
    0.0000    1.5000    0.0000 C   0  0
   -1.2990    0.7500    0.0000 C   0  0  2  0  0  0
   -2.5973    1.5031    0.0000 O   0  0
   -2.5951    3.0039    0.0000 C   0  0  2  0  0  0
   -1.2935    3.7495    0.0000 O   0  0
   -1.2883    5.2495    0.0000 C   0  0  2  0  0  0
    0.0156    5.9928    0.0000 C   0  0
    1.3109    5.2364    0.0000 O   0  0
   -2.5848    6.0040    0.0000 C   0  0  1  0  0  0
   -2.5796    7.5040    0.0000 O   0  0
   -3.8864    5.2585    0.0000 C   0  0  2  0  0  0
   -5.1828    6.0129    0.0000 O   0  0
   -3.8915    3.7585    0.0000 C   0  0  1  0  0  0
   -5.1932    3.0130    0.0000 O   0  0
   -1.2990   -0.7500    0.0000 C   0  0
    0.0000   -1.5000    0.0000 C   0  0
    0.0000   -3.0000    0.0000 C   0  0
    1.2990   -3.7500    0.0000 C   0  0
    2.5981   -3.0000    0.0000 C   0  0  2  0  0  0
    2.5981   -1.5000    0.0000 C   0  0  2  0  0  0
    3.8971   -0.7500    0.0000 C   0  0  1  0  0  0
    3.8971    0.7500    0.0000 O   0  0
    5.1962   -1.5000    0.0000 C   0  0
    5.1962   -3.0000    0.0000 C   0  0  2  0  0  0
    6.5657   -2.3882    0.0000 C   0  0
    6.3051   -3.9936    0.0000 C   0  0  1  0  0  0
    7.7727   -3.6799    0.0000 C   0  0
    8.3390   -2.2963    0.0000 C   0  0
    9.8254   -2.0952    0.0000 C   0  0
   10.7428   -3.2819    0.0000 C   0  0
   12.2293   -3.0808    0.0000 O   0  0
   10.1738   -4.6698    0.0000 O   0  0
    8.6873   -4.8709    0.0000 C   0  0
    5.6950   -5.3640    0.0000 C   0  0
    4.2032   -5.2072    0.0000 C   0  0
    3.8971   -3.7500    0.0000 C   0  0  2  0  0  0
    2.6825   -4.6302    0.0000 O   0  0
  2  1  1  1
  2  3  1  0
  3  4  1  0
  4  5  1  0
  5  6  1  1
  7  6  1  1
  7  8  1  0
  8  9  1  0
  9 10  1  1
 10 11  1  0
  9 12  1  0
 12 13  1  6
 12 14  1  0
 14 15  1  1
 14 16  1  0
 16  7  1  0
 16 17  1  6
  5 18  1  0
 18 19  2  0
 19  2  1  0
 19 20  1  0
 20 21  1  0
 22 21  1  6
 23 22  1  1
 23  2  1  0
 23 24  1  0
 24 25  1  1
 24 26  1  0
 26 27  1  0
 27 28  1  1
 27 29  1  0
 29 30  1  1
 30 31  1  0
 31 32  2  0
 32 33  1  0
 33 34  2  0
 33 35  1  0
 35 36  1  0
 36 30  2  0
 29 37  1  0
 37 38  1  0
 38 39  1  0
 39 22  1  0
 39 27  1  0
 39 40  1  1
M  END
> <Smiles>
C[C@]12CC[C@H](O[C@@H]3O[C@H](CO)[C@@H](O)[C@H](O)[C@H]3O)C=C1CC[C@@H]1[C@@H]2[C@@H](O)C[C@]2(C)[C@@H](c3ccc(=O)oc3)CC[C@]12O

> <ID>
CHEMBL4852084

> <standard_value>
31

> <IC50_uM>
0.031

> <Activity>
Yes

> <pIC50>
7.508638306

> <BCI>
1

$$$$

  SciTegic03012415362D

 75 82  0  0  1  0            999 V2000
    3.9075   -3.7444    0.0000 C   0  0
    2.6060   -2.9986    0.0000 O   0  0
    2.6003   -1.4977    0.0000 C   0  0  2  0  0  0
    3.8990   -0.7455    0.0000 C   0  0
    3.8964    0.7545    0.0000 O   0  0
    5.2003   -1.4932    0.0000 C   0  0  1  0  0  0
    5.2029   -2.9932    0.0000 O   0  0
    6.4990   -0.7409    0.0000 C   0  0  1  0  0  0
    6.4964    0.7591    0.0000 C   0  0
    7.7996   -1.4883    0.0000 O   0  0
    1.2990   -0.7500    0.0000 C   0  0  2  0  0  0
    1.2990    0.7500    0.0000 C   0  0
    0.0000    1.5000    0.0000 C   0  0
    0.0000    3.0000    0.0000 C   0  0
   -1.2991    3.7500    0.0000 C   0  0
   -1.2991    5.2500    0.0000 C   0  0
   -2.5981    6.0000    0.0000 C   0  0
   -2.5951    7.5008    0.0000 O   0  0
   -1.2942    8.2494    0.0000 C   0  0  1  0  0  0
   -1.2890    9.7494    0.0000 C   0  0
    0.0126   10.4949    0.0000 C   0  0  1  0  0  0
    0.0147   11.9958    0.0000 O   0  0
   -1.2835   12.7488    0.0000 C   0  0  1  0  0  0
   -1.2836   14.2488    0.0000 C   0  0
   -2.5827   14.9988    0.0000 C   0  0  1  0  0  0
   -2.5827   16.4988    0.0000 O   0  0
   -3.8817   14.2488    0.0000 C   0  0  2  0  0  0
   -5.1807   14.9988    0.0000 O   0  0
   -3.8817   12.7488    0.0000 C   0  0  1  0  0  0
   -5.1807   11.9988    0.0000 C   0  0
   -2.5826   11.9988    0.0000 O   0  0
    1.3091    9.7405    0.0000 C   0  0  2  0  0  0
    2.6107   10.4860    0.0000 O   0  0
    1.3039    8.2405    0.0000 C   0  0  1  0  0  0
    2.6004    7.4860    0.0000 C   0  0
    0.0023    7.4949    0.0000 O   0  0
   -3.8972    5.2500    0.0000 C   0  0
   -5.1962    6.0000    0.0000 C   0  0
   -3.8971    3.7500    0.0000 C   0  0
   -5.1962    3.0000    0.0000 O   0  0
   -2.5981    3.0000    0.0000 C   0  0
   -2.5981    1.5000    0.0000 C   0  0
   -3.8971    0.7500    0.0000 O   0  0
   -1.2990    0.7500    0.0000 C   0  0
   -1.2990   -0.7500    0.0000 C   0  0
   -2.5981   -1.5000    0.0000 O   0  0
    0.0000   -1.5000    0.0000 C   0  0  1  0  0  0
   -0.0031   -3.0008    0.0000 O   0  0
   -1.3039   -3.7494    0.0000 C   0  0  1  0  0  0
   -1.3092   -5.2494    0.0000 C   0  0
   -2.6108   -5.9949    0.0000 C   0  0  1  0  0  0
   -2.6129   -7.4958    0.0000 O   0  0
   -1.3147   -8.2488    0.0000 C   0  0  1  0  0  0
   -1.3146   -9.7488    0.0000 C   0  0
   -0.0155  -10.4988    0.0000 C   0  0  1  0  0  0
   -0.0186  -11.9997    0.0000 O   0  0
   -1.3194  -12.7482    0.0000 C   0  0  1  0  0  0
   -1.3247  -14.2483    0.0000 C   0  0
   -2.6263  -14.9938    0.0000 C   0  0  2  0  0  0
   -2.6315  -16.4938    0.0000 O   0  0
   -3.9228  -14.2393    0.0000 C   0  0  2  0  0  0
   -5.2244  -14.9848    0.0000 O   0  0
   -3.9176  -12.7393    0.0000 C   0  0  1  0  0  0
   -5.2140  -11.9848    0.0000 C   0  0
   -2.6160  -11.9938    0.0000 O   0  0
    1.2835   -9.7488    0.0000 C   0  0  2  0  0  0
    2.5825  -10.4988    0.0000 O   0  0
    1.2835   -8.2488    0.0000 C   0  0  1  0  0  0
    2.5825   -7.4988    0.0000 C   0  0
   -0.0155   -7.4988    0.0000 O   0  0
   -3.9072   -5.2404    0.0000 C   0  0  2  0  0  0
   -5.2089   -5.9859    0.0000 O   0  0
   -3.9020   -3.7404    0.0000 C   0  0  1  0  0  0
   -5.1985   -2.9860    0.0000 C   0  0
   -2.6004   -2.9949    0.0000 O   0  0
  1  2  1  0
  3  2  1  1
  3  4  1  0
  4  5  2  0
  4  6  1  0
  6  7  1  6
  6  8  1  0
  8  9  1  1
  8 10  1  0
  3 11  1  0
 11 12  1  1
 12 13  1  0
 13 14  2  0
 14 15  1  0
 15 16  2  0
 16 17  1  0
 17 18  1  0
 19 18  1  1
 19 20  1  0
 20 21  1  0
 21 22  1  1
 23 22  1  6
 23 24  1  0
 24 25  1  0
 25 26  1  6
 25 27  1  0
 27 28  1  1
 27 29  1  0
 29 30  1  6
 29 31  1  0
 31 23  1  0
 21 32  1  0
 32 33  1  6
 32 34  1  0
 34 35  1  1
 34 36  1  0
 36 19  1  0
 17 37  2  0
 37 38  1  0
 37 39  1  0
 39 40  1  0
 39 41  2  0
 41 15  1  0
 41 42  1  0
 42 43  1  0
 42 44  2  0
 44 13  1  0
 44 45  1  0
 45 46  2  0
 45 47  1  0
 47 11  1  0
 47 48  1  6
 49 48  1  1
 49 50  1  0
 50 51  1  0
 51 52  1  1
 53 52  1  6
 53 54  1  0
 54 55  1  0
 55 56  1  6
 57 56  1  1
 57 58  1  0
 58 59  1  0
 59 60  1  6
 59 61  1  0
 61 62  1  6
 61 63  1  0
 63 64  1  1
 63 65  1  0
 65 57  1  0
 55 66  1  0
 66 67  1  1
 66 68  1  0
 68 69  1  6
 68 70  1  0
 70 53  1  0
 51 71  1  0
 71 72  1  6
 71 73  1  0
 73 74  1  1
 73 75  1  0
 75 49  1  0
M  END
> <Smiles>
CO[C@H](C(=O)[C@@H](O)[C@@H](C)O)[C@@H]1Cc2cc3cc(O[C@H]4C[C@@H](O[C@H]5C[C@@H](O)[C@H](O)[C@@H](C)O5)[C@H](O)[C@@H](C)O4)c(C)c(O)c3c(O)c2C(=O)[C@H]1O[C@H]1C[C@@H](O[C@H]2C[C@@H](O[C@H]3C[C@H](O)[C@H](
O)[C@@H](C)O3)[C@H](O)[C@@H](C)O2)[C@H](O)[C@@H](C)O1

> <ID>
CHEMBL2152292

> <standard_value>
33.11

> <IC50_uM>
0.03311

> <Activity>
Yes

> <pIC50>
7.480040819

> <BCI>
1

$$$$

  SciTegic03012415362D

 32 35  0  0  0  0            999 V2000
    2.5951   -3.0031    0.0000 C   0  0
    2.5973   -1.5031    0.0000 O   0  0
    1.2990   -0.7500    0.0000 C   0  0
    1.2990    0.7500    0.0000 C   0  0
    0.0000    1.5000    0.0000 N   0  0
   -1.2990    0.7500    0.0000 C   0  0
   -1.2990   -0.7500    0.0000 C   0  0
    0.0000   -1.5000    0.0000 C   0  0
   -2.7248   -1.2135    0.0000 C   0  0
   -3.1882   -2.6402    0.0000 O   0  0
   -3.6065    0.0000    0.0000 C   0  0
   -2.7248    1.2135    0.0000 C   0  0
   -3.3339    2.5831    0.0000 N   0  0
   -2.4537    3.7988    0.0000 C   0  0
   -3.0656    5.1692    0.0000 C   0  0
   -2.1854    6.3848    0.0000 C   0  0
   -2.7972    7.7553    0.0000 N   0  0
   -4.2892    7.9101    0.0000 C   0  0
   -1.9171    8.9709    0.0000 C   0  0
   -2.5289   10.3414    0.0000 C   0  0
   -1.6493   11.5564    0.0000 O   0  0
   -4.8257    2.7399    0.0000 C   0  0
   -5.4358    4.1102    0.0000 O   0  0
   -5.7073    1.5263    0.0000 C   0  0
   -7.1991    1.6831    0.0000 C   0  0
   -8.0808    0.4696    0.0000 C   0  0
   -9.5737    0.6234    0.0000 N   0  3
  -10.4537   -0.5914    0.0000 O   0  0
  -10.1862    1.9927    0.0000 O   0  5
   -7.4707   -0.9007    0.0000 C   0  0
   -5.9789   -1.0575    0.0000 C   0  0
   -5.0972    0.1560    0.0000 C   0  0
  1  2  1  0
  2  3  1  0
  3  4  2  0
  4  5  1  0
  5  6  2  0
  6  7  1  0
  7  8  2  0
  8  3  1  0
  7  9  1  0
  9 10  2  0
  9 11  1  0
 11 12  2  0
 12  6  1  0
 12 13  1  0
 13 14  1  0
 14 15  1  0
 15 16  1  0
 16 17  1  0
 17 18  1  0
 17 19  1  0
 19 20  1  0
 20 21  1  0
 13 22  1  0
 22 23  2  0
 22 24  1  0
 24 25  2  0
 25 26  1  0
 26 27  1  0
 27 28  2  0
 27 29  1  0
 26 30  2  0
 30 31  1  0
 31 32  2  0
 32 11  1  0
 32 24  1  0
M  CHG  2  27   1  29  -1
M  END
> <Smiles>
COc1cnc2c(c1)C(=O)c1c-2n(CCCN(C)CCO)c(=O)c2cc([N+](=O)[O-])ccc12.Cl

> <ID>
CHEMBL3126930

> <standard_value>
34

> <IC50_uM>
0.034

> <Activity>
Yes

> <pIC50>
7.468521083

> <BCI>
1

> <RemovedSalts>
HCl

$$$$

  SciTegic03012415362D

 27 31  0  0  0  0            999 V2000
    2.5951   -3.0031    0.0000 C   0  0
    2.5973   -1.5031    0.0000 O   0  0
    1.2990   -0.7500    0.0000 C   0  0
    1.2990    0.7500    0.0000 C   0  0
    0.0000    1.5000    0.0000 C   0  0
   -1.2990    0.7500    0.0000 C   0  0
   -1.2990   -0.7500    0.0000 C   0  0
    0.0000   -1.5000    0.0000 C   0  0
   -2.5981   -1.5000    0.0000 O   0  0
   -3.8971   -0.7500    0.0000 C   0  0
   -3.8971    0.7500    0.0000 C   0  0
   -5.3229    1.2135    0.0000 C   0  0
   -5.7863    2.6401    0.0000 O   0  0
   -6.2045    0.0000    0.0000 O   0  0
   -5.3229   -1.2135    0.0000 C   0  0
   -2.5981    1.5000    0.0000 C   0  0  3  0  0  0
   -2.5981    3.0007    0.0000 C   0  0
   -3.8959    3.7529    0.0000 C   0  0
   -3.8936    5.2529    0.0000 C   0  0
   -5.1937    6.0027    0.0000 O   0  0
   -6.4928    5.2529    0.0000 C   0  0
   -2.5933    6.0009    0.0000 C   0  0
   -1.2955    5.2488    0.0000 C   0  0
   -1.2979    3.7488    0.0000 C   0  0
   -0.1796    6.2500    0.0000 O   0  0
   -0.7875    7.6213    0.0000 C   0  0
   -2.2796    7.4668    0.0000 O   0  0
  1  2  1  0
  2  3  1  0
  3  4  2  0
  4  5  1  0
  5  6  2  0
  6  7  1  0
  7  8  2  0
  8  3  1  0
  7  9  1  0
  9 10  1  0
 10 11  2  0
 11 12  1  0
 12 13  2  0
 12 14  1  0
 14 15  1  0
 15 10  1  0
 11 16  1  0
 16  6  1  0
 16 17  1  4
 17 18  2  0
 18 19  1  0
 19 20  1  0
 20 21  1  0
 19 22  2  0
 22 23  1  0
 23 24  2  0
 24 17  1  0
 23 25  1  0
 25 26  1  0
 26 27  1  0
 27 22  1  0
M  END
> <Smiles>
COc1ccc2c(c1)OC1=C(C(=O)OC1)C2c1cc(OC)c2c(c1)OCO2

> <ID>
CHEMBL2010921

> <standard_value>
34.4

> <IC50_uM>
0.0344

> <Activity>
Yes

> <pIC50>
7.463441557

> <BCI>
1

$$$$

  SciTegic03012415362D

 29 32  0  0  0  0            999 V2000
    3.8926   -3.7566    0.0000 C   0  0
    2.5951   -3.0039    0.0000 C   0  0
    2.5973   -1.5031    0.0000 O   0  0
    1.2990   -0.7500    0.0000 C   0  0
    1.2990    0.7500    0.0000 C   0  0
    0.0000    1.5000    0.0000 C   0  0
   -1.2990    0.7500    0.0000 C   0  0
   -1.2990   -0.7500    0.0000 C   0  0
    0.0000   -1.5000    0.0000 C   0  0
   -2.7248   -1.2135    0.0000 C   0  0
   -3.1882   -2.6402    0.0000 O   0  0
   -3.6065    0.0000    0.0000 C   0  0
   -2.7248    1.2135    0.0000 C   0  0
   -3.3339    2.5831    0.0000 N   0  0
   -2.4537    3.7988    0.0000 C   0  0
   -3.0656    5.1692    0.0000 C   0  0
   -2.1854    6.3848    0.0000 C   0  0
   -2.7969    7.7545    0.0000 N   0  0
   -4.8257    2.7399    0.0000 C   0  0
   -5.4358    4.1102    0.0000 O   0  0
   -5.7073    1.5263    0.0000 C   0  0
   -7.1991    1.6831    0.0000 C   0  0
   -8.0808    0.4696    0.0000 C   0  0
   -9.5737    0.6234    0.0000 N   0  3
  -10.4537   -0.5914    0.0000 O   0  0
  -10.1862    1.9927    0.0000 O   0  5
   -7.4707   -0.9007    0.0000 C   0  0
   -5.9789   -1.0575    0.0000 C   0  0
   -5.0972    0.1560    0.0000 C   0  0
  1  2  1  0
  2  3  1  0
  3  4  1  0
  4  5  2  0
  5  6  1  0
  6  7  2  0
  7  8  1  0
  8  9  2  0
  9  4  1  0
  8 10  1  0
 10 11  2  0
 10 12  1  0
 12 13  2  0
 13  7  1  0
 13 14  1  0
 14 15  1  0
 15 16  1  0
 16 17  1  0
 17 18  1  0
 14 19  1  0
 19 20  2  0
 19 21  1  0
 21 22  2  0
 22 23  1  0
 23 24  1  0
 24 25  2  0
 24 26  1  0
 23 27  2  0
 27 28  1  0
 28 29  2  0
 29 12  1  0
 29 21  1  0
M  CHG  2  24   1  26  -1
M  END
> <Smiles>
CCOc1ccc2c(c1)C(=O)c1c-2n(CCCN)c(=O)c2cc([N+](=O)[O-])ccc12

> <ID>
CHEMBL395538

> <standard_value>
35

> <IC50_uM>
0.035

> <Activity>
Yes

> <pIC50>
7.455931956

> <BCI>
1

$$$$

  SciTegic03012415362D

 27 28  0  0  0  0            999 V2000
    3.8983   -0.7459    0.0000 C   0  0
    2.6003   -1.4977    0.0000 O   0  0
    1.2990   -0.7500    0.0000 C   0  0
    1.2990    0.7500    0.0000 C   0  0
    0.0000    1.5000    0.0000 C   0  0
   -1.2990    0.7500    0.0000 C   0  0
   -2.6003    1.4977    0.0000 C   0  0
   -3.8990    0.7455    0.0000 C   0  0
   -5.2003    1.4932    0.0000 C   0  0
   -5.2029    2.9932    0.0000 O   0  0
   -6.4990    0.7409    0.0000 C   0  0
   -7.8007    1.4864    0.0000 C   0  0
   -9.0971    0.7319    0.0000 C   0  0
  -10.3980    1.4804    0.0000 O   0  0
  -10.4010    2.9804    0.0000 C   0  0
   -9.0919   -0.7681    0.0000 C   0  0
  -10.3875   -1.5257    0.0000 O   0  0
  -10.3802   -3.0257    0.0000 C   0  0
   -7.7903   -1.5136    0.0000 C   0  0
   -7.7820   -3.0144    0.0000 O   0  0
   -6.4793   -3.7581    0.0000 C   0  0
   -6.4939   -0.7591    0.0000 C   0  0
   -1.2990   -0.7500    0.0000 C   0  0
    0.0000   -1.5000    0.0000 C   0  0
   -0.0031   -3.0008    0.0000 B   0  0
   -1.3032   -3.7490    0.0000 O   0  0
    1.2947   -3.7531    0.0000 O   0  0
  1  2  1  0
  2  3  1  0
  3  4  2  0
  4  5  1  0
  5  6  2  0
  6  7  1  0
  7  8  2  0
  8  9  1  0
  9 10  2  0
  9 11  1  0
 11 12  2  0
 12 13  1  0
 13 14  1  0
 14 15  1  0
 13 16  2  0
 16 17  1  0
 17 18  1  0
 16 19  1  0
 19 20  1  0
 20 21  1  0
 19 22  2  0
 22 11  1  0
  6 23  1  0
 23 24  2  0
 24  3  1  0
 24 25  1  0
 25 26  1  0
 25 27  1  0
M  END
> <Smiles>
COc1ccc(/C=C/C(=O)c2cc(OC)c(OC)c(OC)c2)cc1B(O)O

> <ID>
CHEMBL590574

> <standard_value>
35

> <IC50_uM>
0.035

> <Activity>
Yes

> <pIC50>
7.455931956

> <BCI>
1

$$$$

  SciTegic03012415362D

 33 37  0  0  0  0            999 V2000
    2.5951   -3.0031    0.0000 C   0  0
    2.5973   -1.5031    0.0000 O   0  0
    1.2990   -0.7500    0.0000 C   0  0
    1.2990    0.7500    0.0000 C   0  0
    0.0000    1.5000    0.0000 N   0  0
   -1.2990    0.7500    0.0000 C   0  0
   -1.2990   -0.7500    0.0000 C   0  0
    0.0000   -1.5000    0.0000 C   0  0
   -2.7248   -1.2135    0.0000 C   0  0
   -3.1882   -2.6402    0.0000 O   0  0
   -3.6065    0.0000    0.0000 C   0  0
   -2.7248    1.2135    0.0000 C   0  0
   -3.3339    2.5831    0.0000 N   0  0
   -2.4537    3.7988    0.0000 C   0  0
   -3.0656    5.1692    0.0000 C   0  0
   -2.1854    6.3848    0.0000 C   0  0
   -2.7972    7.7553    0.0000 N   0  0
   -1.9193    8.9716    0.0000 C   0  0
   -2.5336   10.3400    0.0000 C   0  0
   -4.0259   10.4923    0.0000 O   0  0
   -4.9038    9.2761    0.0000 C   0  0
   -4.2896    7.9076    0.0000 C   0  0
   -4.8257    2.7399    0.0000 C   0  0
   -5.4358    4.1102    0.0000 O   0  0
   -5.7073    1.5263    0.0000 C   0  0
   -7.1991    1.6831    0.0000 C   0  0
   -8.0808    0.4696    0.0000 C   0  0
   -9.5737    0.6234    0.0000 N   0  3
  -10.4537   -0.5914    0.0000 O   0  0
  -10.1862    1.9927    0.0000 O   0  5
   -7.4707   -0.9007    0.0000 C   0  0
   -5.9789   -1.0575    0.0000 C   0  0
   -5.0972    0.1560    0.0000 C   0  0
  1  2  1  0
  2  3  1  0
  3  4  2  0
  4  5  1  0
  5  6  2  0
  6  7  1  0
  7  8  2  0
  8  3  1  0
  7  9  1  0
  9 10  2  0
  9 11  1  0
 11 12  2  0
 12  6  1  0
 12 13  1  0
 13 14  1  0
 14 15  1  0
 15 16  1  0
 16 17  1  0
 17 18  1  0
 18 19  1  0
 19 20  1  0
 20 21  1  0
 21 22  1  0
 22 17  1  0
 13 23  1  0
 23 24  2  0
 23 25  1  0
 25 26  2  0
 26 27  1  0
 27 28  1  0
 28 29  2  0
 28 30  1  0
 27 31  2  0
 31 32  1  0
 32 33  2  0
 33 11  1  0
 33 25  1  0
M  CHG  2  28   1  30  -1
M  END
> <Smiles>
COc1cnc2c(c1)C(=O)c1c-2n(CCCN2CCOCC2)c(=O)c2cc([N+](=O)[O-])ccc12

> <ID>
CHEMBL2024288

> <standard_value>
35

> <IC50_uM>
0.035

> <Activity>
Yes

> <pIC50>
7.455931956

> <BCI>
1

$$$$

  SciTegic03012415362D

 30 33  0  0  1  0            999 V2000
    3.8983   -0.7459    0.0000 C   0  0
    2.6003   -1.4977    0.0000 O   0  0
    1.2990   -0.7500    0.0000 C   0  0
    1.2990    0.7500    0.0000 C   0  0
    0.0000    1.5000    0.0000 C   0  0
   -1.2990    0.7500    0.0000 C   0  0
   -1.2990   -0.7500    0.0000 C   0  0
    0.0000   -1.5000    0.0000 C   0  0
   -0.0031   -3.0008    0.0000 O   0  0
   -1.3039   -3.7494    0.0000 S   0  0
   -2.6016   -2.9971    0.0000 N   0  0
   -1.3070   -5.2494    0.0000 O   0  0
   -2.6044   -4.4969    0.0000 O   0  0
   -2.5981    1.5000    0.0000 C   0  0
   -2.5981    3.0000    0.0000 C   0  0
   -1.2991    3.7500    0.0000 C   0  0  2  0  0  0
    0.0000    3.0000    0.0000 C   0  0  2  0  0  0
    1.2990    3.7500    0.0000 C   0  0
    1.2990    5.2500    0.0000 C   0  0
    0.0000    6.0000    0.0000 C   0  0  2  0  0  0
    1.2211    6.8711    0.0000 C   0  0
   -0.2851    7.4666    0.0000 C   0  0  1  0  0  0
    0.7337    8.5650    0.0000 O   0  0
    2.1972    8.2322    0.0000 S   0  0
    2.6400    6.7990    0.0000 N   0  0
    3.2173    9.3319    0.0000 O   0  0
    3.6597    7.8988    0.0000 O   0  0
   -1.7759    7.6329    0.0000 C   0  0
   -2.3947    6.2665    0.0000 C   0  0
   -1.2991    5.2500    0.0000 C   0  0  1  0  0  0
  1  2  1  0
  2  3  1  0
  3  4  2  0
  4  5  1  0
  5  6  2  0
  6  7  1  0
  7  8  2  0
  8  3  1  0
  8  9  1  0
  9 10  1  0
 10 11  1  0
 10 12  2  0
 10 13  2  0
  6 14  1  0
 14 15  1  0
 16 15  1  1
 16 17  1  0
 17  5  1  0
 17 18  1  6
 18 19  1  0
 19 20  1  0
 20 21  1  6
 20 22  1  0
 22 23  1  6
 23 24  1  0
 24 25  1  0
 24 26  2  0
 24 27  2  0
 22 28  1  0
 28 29  1  0
 30 29  1  6
 30 16  1  0
 30 20  1  0
M  END
> <Smiles>
COc1cc2c(cc1OS(N)(=O)=O)CC[C@@H]1[C@@H]2CC[C@]2(C)[C@@H](OS(N)(=O)=O)CC[C@@H]12

> <ID>
CHEMBL218382

> <standard_value>
36

> <IC50_uM>
0.036

> <Activity>
Yes

> <pIC50>
7.443697499

> <BCI>
1

$$$$

  SciTegic03012415362D

 33 37  0  0  0  0            999 V2000
    2.5951   -3.0031    0.0000 C   0  0
    2.5973   -1.5031    0.0000 O   0  0
    1.2990   -0.7500    0.0000 C   0  0
    1.2990    0.7500    0.0000 C   0  0
    0.0000    1.5000    0.0000 N   0  0
   -1.2990    0.7500    0.0000 C   0  0
   -1.2990   -0.7500    0.0000 C   0  0
    0.0000   -1.5000    0.0000 C   0  0
   -2.7248   -1.2135    0.0000 C   0  0
   -3.1882   -2.6402    0.0000 O   0  0
   -3.6065    0.0000    0.0000 C   0  0
   -2.7248    1.2135    0.0000 C   0  0
   -3.3339    2.5831    0.0000 N   0  0
   -2.4537    3.7988    0.0000 C   0  0
   -3.0656    5.1692    0.0000 C   0  0
   -2.1854    6.3848    0.0000 C   0  0
   -2.7972    7.7553    0.0000 N   0  0
   -1.9171    8.9709    0.0000 C   0  0
   -2.3929   10.3800    0.0000 N   0  0
   -1.1790   11.2612    0.0000 C   0  0
    0.0342   10.3791    0.0000 C   0  0
   -0.4299    8.9527    0.0000 S   0  0
   -4.8257    2.7399    0.0000 C   0  0
   -5.4358    4.1102    0.0000 O   0  0
   -5.7073    1.5263    0.0000 C   0  0
   -7.1991    1.6831    0.0000 C   0  0
   -8.0808    0.4696    0.0000 C   0  0
   -9.5737    0.6234    0.0000 N   0  3
  -10.4537   -0.5914    0.0000 O   0  0
  -10.1862    1.9927    0.0000 O   0  5
   -7.4707   -0.9007    0.0000 C   0  0
   -5.9789   -1.0575    0.0000 C   0  0
   -5.0972    0.1560    0.0000 C   0  0
  1  2  1  0
  2  3  1  0
  3  4  2  0
  4  5  1  0
  5  6  2  0
  6  7  1  0
  7  8  2  0
  8  3  1  0
  7  9  1  0
  9 10  2  0
  9 11  1  0
 11 12  2  0
 12  6  1  0
 12 13  1  0
 13 14  1  0
 14 15  1  0
 15 16  1  0
 16 17  1  0
 17 18  1  0
 18 19  2  0
 19 20  1  0
 20 21  1  0
 21 22  1  0
 22 18  1  0
 13 23  1  0
 23 24  2  0
 23 25  1  0
 25 26  2  0
 26 27  1  0
 27 28  1  0
 28 29  2  0
 28 30  1  0
 27 31  2  0
 31 32  1  0
 32 33  2  0
 33 11  1  0
 33 25  1  0
M  CHG  2  28   1  30  -1
M  END
> <Smiles>
COc1cnc2c(c1)C(=O)c1c-2n(CCCNC2=NCCS2)c(=O)c2cc([N+](=O)[O-])ccc12

> <ID>
CHEMBL4097105

> <standard_value>
36

> <IC50_uM>
0.036

> <Activity>
Yes

> <pIC50>
7.443697499

> <BCI>
1

$$$$

  SciTegic03012415362D

 23 26  0  0  1  0            999 V2000
    5.1996   -1.4928    0.0000 C   0  0
    3.8990   -0.7455    0.0000 C   0  0
    2.6003   -1.4977    0.0000 C   0  0
    1.2990   -0.7500    0.0000 C   0  0
    1.2990    0.7500    0.0000 C   0  0
    0.0000    1.5000    0.0000 C   0  0
   -1.2990    0.7500    0.0000 C   0  0
   -1.2990   -0.7500    0.0000 C   0  0
    0.0000   -1.5000    0.0000 C   0  0
    0.0000   -3.0000    0.0000 O   0  0
   -2.5981    1.5000    0.0000 C   0  0
   -2.5981    3.0000    0.0000 C   0  0
   -1.2991    3.7500    0.0000 C   0  0  2  0  0  0
    0.0000    3.0000    0.0000 C   0  0  2  0  0  0
    1.2990    3.7500    0.0000 C   0  0
    1.2990    5.2500    0.0000 C   0  0
    0.0000    6.0000    0.0000 C   0  0  2  0  0  0
    1.2211    6.8711    0.0000 C   0  0
   -0.2851    7.4666    0.0000 C   0  0  1  0  0  0
    0.7318    8.5693    0.0000 O   0  0
   -1.7759    7.6329    0.0000 C   0  0
   -2.3947    6.2665    0.0000 C   0  0
   -1.2991    5.2500    0.0000 C   0  0  1  0  0  0
  1  2  1  0
  2  3  2  0
  3  4  1  0
  4  5  2  0
  5  6  1  0
  6  7  2  0
  7  8  1  0
  8  9  2  0
  9  4  1  0
  9 10  1  0
  7 11  1  0
 11 12  1  0
 13 12  1  1
 13 14  1  0
 14  6  1  0
 14 15  1  6
 15 16  1  0
 16 17  1  0
 17 18  1  6
 17 19  1  0
 19 20  1  6
 19 21  1  0
 21 22  1  0
 23 22  1  6
 23 13  1  0
 23 17  1  0
M  END
> <Smiles>
C/C=C/c1cc2c(cc1O)CC[C@@H]1[C@@H]2CC[C@]2(C)[C@@H](O)CC[C@@H]12

> <ID>
CHEMBL1627439

> <standard_value>
37

> <IC50_uM>
0.037

> <Activity>
Yes

> <pIC50>
7.431798276

> <BCI>
1

$$$$

  SciTegic03012415362D

 34 39  0  0  0  0            999 V2000
    3.8983   -0.7459    0.0000 C   0  0
    2.6003   -1.4977    0.0000 O   0  0
    1.2990   -0.7500    0.0000 C   0  0
    1.2990    0.7500    0.0000 C   0  0
    0.0000    1.5000    0.0000 C   0  0
    0.0000    3.0000    0.0000 C   0  0
   -1.2991    3.7500    0.0000 C   0  0
   -2.5981    3.0000    0.0000 N   0  0
   -3.8994    3.7477    0.0000 C   0  0
   -5.1981    2.9954    0.0000 C   0  0
   -6.4994    3.7432    0.0000 C   0  0
   -7.7981    2.9909    0.0000 N   0  0
   -9.1516    3.6072    0.0000 C   0  0
  -10.1514    2.4890    0.0000 C   0  0
   -9.3969    1.1926    0.0000 N   0  0
   -7.9308    1.5096    0.0000 C   0  0
   -2.5981    1.5000    0.0000 C   0  0
   -3.8971    0.7500    0.0000 O   0  0
   -1.2990    0.7500    0.0000 C   0  0
   -1.2990   -0.7500    0.0000 C   0  0
    0.0000   -1.5000    0.0000 C   0  0
   -0.0031   -3.0008    0.0000 O   0  0
   -1.3032   -3.7490    0.0000 C   0  0
   -0.9876    5.2165    0.0000 C   0  0
   -1.8692    6.4288    0.0000 C   0  0
   -1.2591    7.7991    0.0000 C   0  0
    0.2327    7.9559    0.0000 C   0  0
    1.1144    6.7424    0.0000 C   0  0
    0.5042    5.3733    0.0000 C   0  0
    1.1143    4.0030    0.0000 C   0  0
    2.5815    3.6910    0.0000 O   0  0
    0.5446    9.4223    0.0000 O   0  0
   -0.7544   10.1723    0.0000 C   0  0
   -1.8691    9.1686    0.0000 O   0  0
  1  2  1  0
  2  3  1  0
  3  4  2  0
  4  5  1  0
  5  6  1  0
  6  7  2  0
  7  8  1  0
  8  9  1  0
  9 10  1  0
 10 11  1  0
 11 12  1  0
 12 13  1  0
 13 14  2  0
 14 15  1  0
 15 16  2  0
 16 12  1  0
  8 17  1  0
 17 18  2  0
 17 19  1  0
 19  5  2  0
 19 20  1  0
 20 21  2  0
 21  3  1  0
 21 22  1  0
 22 23  1  0
  7 24  1  0
 24 25  2  0
 25 26  1  0
 26 27  2  0
 27 28  1  0
 28 29  2  0
 29 24  1  0
 29 30  1  0
 30  6  1  0
 30 31  2  0
 27 32  1  0
 32 33  1  0
 33 34  1  0
 34 26  1  0
M  END
> <Smiles>
COc1cc2c3c(n(CCCn4ccnc4)c(=O)c2cc1OC)-c1cc2c(cc1C3=O)OCO2.Cl.Cl

> <ID>
CHEMBL3216001

> <standard_value>
37

> <IC50_uM>
0.037

> <Activity>
Yes

> <pIC50>
7.431798276

> <BCI>
1

> <RemovedSalts>
HCl
HCl

$$$$

  SciTegic03012415362D

 25 28  0  0  0  0            999 V2000
    2.5951   -3.0031    0.0000 C   0  0
    2.5973   -1.5031    0.0000 O   0  0
    1.2990   -0.7500    0.0000 C   0  0
    1.2990    0.7500    0.0000 C   0  0
    0.0000    1.5000    0.0000 C   0  0
   -1.2990    0.7500    0.0000 C   0  0
   -1.2990   -0.7500    0.0000 C   0  0
    0.0000   -1.5000    0.0000 C   0  0
   -2.7248   -1.2135    0.0000 C   0  0
   -3.1882   -2.6402    0.0000 O   0  0
   -3.6065    0.0000    0.0000 C   0  0
   -2.7248    1.2135    0.0000 C   0  0
   -3.3339    2.5831    0.0000 N   0  0
   -2.4537    3.7988    0.0000 C   0  0
   -3.0656    5.1692    0.0000 C   0  0
   -2.1854    6.3848    0.0000 C   0  0
   -2.7969    7.7545    0.0000 N   0  0
   -4.8257    2.7399    0.0000 C   0  0
   -5.4358    4.1102    0.0000 O   0  0
   -5.7073    1.5263    0.0000 C   0  0
   -7.1991    1.6831    0.0000 C   0  0
   -8.0808    0.4696    0.0000 C   0  0
   -7.4707   -0.9007    0.0000 C   0  0
   -5.9789   -1.0575    0.0000 C   0  0
   -5.0972    0.1560    0.0000 C   0  0
  1  2  1  0
  2  3  1  0
  3  4  2  0
  4  5  1  0
  5  6  2  0
  6  7  1  0
  7  8  2  0
  8  3  1  0
  7  9  1  0
  9 10  2  0
  9 11  1  0
 11 12  2  0
 12  6  1  0
 12 13  1  0
 13 14  1  0
 14 15  1  0
 15 16  1  0
 16 17  1  0
 13 18  1  0
 18 19  2  0
 18 20  1  0
 20 21  2  0
 21 22  1  0
 22 23  2  0
 23 24  1  0
 24 25  2  0
 25 11  1  0
 25 20  1  0
M  END
> <Smiles>
COc1ccc2c(c1)C(=O)c1c-2n(CCCN)c(=O)c2ccccc12

> <ID>
CHEMBL242857

> <standard_value>
38

> <IC50_uM>
0.038

> <Activity>
Yes

> <pIC50>
7.420216403

> <BCI>
1

$$$$

  SciTegic03012415362D

 30 34  0  0  0  0            999 V2000
    2.5951   -3.0031    0.0000 C   0  0
    2.5973   -1.5031    0.0000 O   0  0
    1.2990   -0.7500    0.0000 C   0  0
    1.2990    0.7500    0.0000 C   0  0
    0.0000    1.5000    0.0000 N   0  0
   -1.2990    0.7500    0.0000 C   0  0
   -1.2990   -0.7500    0.0000 C   0  0
    0.0000   -1.5000    0.0000 C   0  0
   -2.7248   -1.2135    0.0000 C   0  0
   -3.1882   -2.6402    0.0000 O   0  0
   -3.6065    0.0000    0.0000 C   0  0
   -2.7248    1.2135    0.0000 C   0  0
   -3.3339    2.5831    0.0000 N   0  0
   -2.4537    3.7988    0.0000 C   0  0
   -3.0656    5.1692    0.0000 C   0  0
   -2.1854    6.3848    0.0000 C   0  0
   -2.7972    7.7553    0.0000 N   0  0
   -2.0423    9.0367    0.0000 C   0  0
   -3.0494   10.1483    0.0000 C   0  0
   -4.4179    9.5340    0.0000 N   0  0
   -4.2565    8.0427    0.0000 C   0  0
   -4.8257    2.7399    0.0000 C   0  0
   -5.4358    4.1102    0.0000 O   0  0
   -5.7073    1.5263    0.0000 C   0  0
   -7.1991    1.6831    0.0000 C   0  0
   -8.0808    0.4696    0.0000 C   0  0
   -9.5726    0.6264    0.0000 Cl  0  0
   -7.4707   -0.9007    0.0000 C   0  0
   -5.9789   -1.0575    0.0000 C   0  0
   -5.0972    0.1560    0.0000 C   0  0
  1  2  1  0
  2  3  1  0
  3  4  2  0
  4  5  1  0
  5  6  2  0
  6  7  1  0
  7  8  2  0
  8  3  1  0
  7  9  1  0
  9 10  2  0
  9 11  1  0
 11 12  2  0
 12  6  1  0
 12 13  1  0
 13 14  1  0
 14 15  1  0
 15 16  1  0
 16 17  1  0
 17 18  1  0
 18 19  2  0
 19 20  1  0
 20 21  2  0
 21 17  1  0
 13 22  1  0
 22 23  2  0
 22 24  1  0
 24 25  2  0
 25 26  1  0
 26 27  1  0
 26 28  2  0
 28 29  1  0
 29 30  2  0
 30 11  1  0
 30 24  1  0
M  END
> <Smiles>
COc1cnc2c(c1)C(=O)c1c-2n(CCCn2ccnc2)c(=O)c2cc(Cl)ccc12

> <ID>
CHEMBL4103520

> <standard_value>
38

> <IC50_uM>
0.038

> <Activity>
Yes

> <pIC50>
7.420216403

> <BCI>
1

$$$$

  SciTegic03012415362D

 28 29  0  0  1  0            999 V2000
    5.3192   -0.2597    0.0000 C   0  0
    4.1500    0.6800    0.0000 C   0  0  1  0  0  0
    2.5200    0.3600    0.0000 C   0  0
    2.3100   -1.1700    0.0000 C   0  0
    1.3300   -1.6300    0.0000 C   0  0
    0.1900   -1.1200    0.0000 C   0  0
    0.0000    0.3600    0.0000 C   0  0
   -1.5600    0.8100    0.0000 C   0  0  2  0  0  0
   -3.0100    0.3400    0.0000 C   0  0
   -3.9100    1.5700    0.0000 C   0  0  2  0  0  0
   -5.4100    1.5671    0.0000 O   0  0
   -3.0100    2.8100    0.0000 C   0  0
   -1.5600    2.3300    0.0000 C   0  0  1  0  0  0
    0.0000    2.8600    0.0000 C   0  0  2  0  0  0
    0.7452    2.1932    0.0000 O   0  0
    0.3300    4.3600    0.0000 C   0  0  2  0  0  0
   -0.6480    5.4889    0.0000 S   0  0  3  0  0  0
   -2.1204    5.2024    0.0000 O   0  0
   -0.1602    6.9083    0.0000 C   0  0
   -1.1447    8.0410    0.0000 C   0  0  3  0  0  0
   -2.6171    7.7545    0.0000 N   0  0
   -0.6569    9.4604    0.0000 C   0  0
   -1.6409   10.5925    0.0000 O   0  0
    0.8155    9.7469    0.0000 O   0  0
    2.3100    4.3400    0.0000 C   0  0
    2.6000    2.8000    0.0000 C   0  0
    1.8719    2.1146    0.0000 O   0  0
    4.1100    2.4200    0.0000 O   0  0
  2  1  1  1
  2  3  1  0
  3  4  1  0
  4  5  1  0
  5  6  1  0
  6  7  2  0
  8  7  1  6
  8  9  1  0
  9 10  1  0
 10 11  1  6
 10 12  1  0
 13 12  1  1
 13  8  1  0
 13 14  1  0
 14 15  1  1
 14 16  1  0
 16 17  1  6
 17 18  2  0
 17 19  1  4
 19 20  1  0
 20 21  1  4
 20 22  1  0
 22 23  2  0
 22 24  1  0
 16 25  1  0
 25 26  1  0
 26 27  2  0
 26 28  1  0
 28  2  1  0
M  END
> <Smiles>
C[C@H]1CCC/C=C/[C@@H]2C[C@H](O)C[C@H]2[C@H](O)[C@H]([S+]([O-])CC(N)C(=O)O)CC(=O)O1

> <ID>
CHEMBL333145

> <standard_value>
39

> <IC50_uM>
0.039

> <Activity>
Yes

> <pIC50>
7.408935393

> <BCI>
1

$$$$

  SciTegic03012415362D

 43 50  0  0  1  0            999 V2000
    4.1900   -1.3600    0.0000 C   0  0
    2.6900   -1.3600    0.0000 C   0  0  1  0  0  0
    1.8400   -2.8200    0.0000 C   0  0  1  0  0  0
    2.5900   -4.1179    0.0000 O   0  0
    4.0908   -4.1184    0.0000 C   0  0  1  0  0  0
    4.8407   -2.8193    0.0000 C   0  0
    4.8416   -5.4179    0.0000 C   0  0
    6.3425   -5.4183    0.0000 O   0  0
    7.0933   -6.7178    0.0000 C   0  0  1  0  0  0
    6.2357   -8.1652    0.0000 O   0  0
    7.0751   -9.6256    0.0000 C   0  0  2  0  0  0
    6.4614  -10.6800    0.0000 O   0  0
    6.7772  -11.8472    0.0000 C   0  0  1  0  0  0
    7.9677  -10.9347    0.0000 C   0  0
    7.8230  -12.4558    0.0000 C   0  0
    8.9939  -12.1537    0.0000 C   0  0
    9.6075  -11.0993    0.0000 C   0  0  1  0  0  0
   11.2919  -11.1076    0.0000 C   0  0  2  0  0  0
   12.0364  -12.4098    0.0000 C   0  0
   12.1419   -9.6469    0.0000 C   0  0
   11.3075   -8.1780    0.0000 C   0  0
    9.6095   -8.1732    0.0000 C   0  0  1  0  0  0
    8.7751   -6.7042    0.0000 C   0  0  1  0  0  0
    9.5245   -5.4048    0.0000 C   0  0
    8.7595   -9.6339    0.0000 C   0  0  1  0  0  0
    8.6055  -11.0715    0.0000 O   0  0
    7.6710  -11.6037    0.0000 O   0  0
    0.1500   -2.8200    0.0000 O   0  0
   -0.6900   -1.3600    0.0000 C   0  0  2  0  0  0
   -1.9100   -1.3600    0.0000 O   0  0
   -2.7600   -0.5000    0.0000 C   0  0  1  0  0  0
   -1.3725    0.0700    0.0000 C   0  0
   -2.7600    0.7100    0.0000 C   0  0
   -1.9100    1.5700    0.0000 C   0  0
   -0.6900    1.5700    0.0000 C   0  0  1  0  0  0
    0.1500    3.0300    0.0000 C   0  0  2  0  0  0
   -0.6010    4.3285    0.0000 C   0  0
    1.8400    3.0300    0.0000 C   0  0
    2.6900    1.5700    0.0000 C   0  0
    1.8400    0.1000    0.0000 C   0  0  2  0  0  0
    0.1500    0.1000    0.0000 C   0  0  1  0  0  0
   -1.1700    0.6900    0.0000 O   0  0
   -2.1000    0.1500    0.0000 O   0  0
  2  1  1  1
  2  3  1  0
  3  4  1  1
  4  5  1  0
  5  6  1  1
  5  7  1  0
  7  8  1  0
  9  8  1  6
  9 10  1  0
 11 10  1  1
 11 12  1  0
 12 13  1  0
 13 14  1  1
 13 15  1  0
 15 16  1  0
 17 16  1  6
 17 18  1  0
 18 19  1  1
 18 20  1  0
 20 21  1  0
 22 21  1  6
 22 23  1  0
 23  9  1  0
 23 24  1  6
 22 25  1  0
 25 11  1  0
 25 17  1  0
 25 26  1  1
 26 27  1  0
 27 13  1  0
  3 28  1  0
 29 28  1  6
 29 30  1  0
 30 31  1  0
 31 32  1  6
 31 33  1  0
 33 34  1  0
 35 34  1  1
 35 36  1  0
 36 37  1  6
 36 38  1  0
 38 39  1  0
 40 39  1  1
 40  2  1  0
 40 41  1  0
 41 29  1  0
 41 35  1  0
 41 42  1  6
 42 43  1  0
 43 31  1  0
M  END
> <Smiles>
C[C@H]1[C@@H](O[C@@H](C)CO[C@H]2O[C@@H]3O[C@@]4(C)CC[C@H]5[C@H](C)CC[C@@H]([C@H]2C)[C@@]35OO4)O[C@@H]2O[C@@]3(C)CC[C@H]4[C@H](C)CC[C@@H]1[C@@]24OO3

> <ID>
CHEMBL500849

> <standard_value>
39

> <IC50_uM>
0.039

> <Activity>
Yes

> <pIC50>
7.408935393

> <BCI>
1

$$$$

  SciTegic03012415362D

 34 37  0  0  0  0            999 V2000
    9.3080   -5.7110    0.0000 C   0  0
    8.5599   -7.0112    0.0000 O   0  0
    7.0591   -7.0143    0.0000 C   0  0
    6.3090   -5.7153    0.0000 C   0  0
    4.8090   -5.7153    0.0000 C   0  0
    4.0559   -4.4171    0.0000 C   0  0
    4.8040   -3.1160    0.0000 C   0  0
    5.5517   -1.8157    0.0000 N   0  0
    2.5551   -4.4192    0.0000 C   0  0
    1.8032   -3.1233    0.0000 C   0  0
    2.4133   -1.7530    0.0000 C   0  0
    1.2990   -0.7500    0.0000 C   0  0
    1.2990    0.7500    0.0000 C   0  0
    0.0000    1.5000    0.0000 C   0  0
   -1.2990    0.7500    0.0000 C   0  0
   -1.2990   -0.7500    0.0000 C   0  0
    0.0000   -1.5000    0.0000 C   0  0
    0.3114   -2.9665    0.0000 N   0  0
   -0.6890   -4.0818    0.0000 C   0  0
   -0.2234   -5.5086    0.0000 C   0  0
   -1.2234   -6.6267    0.0000 C   0  0
   -0.7552   -8.0517    0.0000 C   0  0
    0.7130   -8.3588    0.0000 C   0  0
    1.1815   -9.7846    0.0000 C   0  0
    1.6497  -11.2097    0.0000 N   0  0
    1.7131   -7.2408    0.0000 C   0  0
    1.2449   -5.8157    0.0000 C   0  0
    4.0591   -7.0144    0.0000 C   0  0
    4.8091   -8.3134    0.0000 C   0  0
    4.0561   -9.6117    0.0000 O   0  0
    2.5561   -9.6096    0.0000 C   0  0
    6.3091   -8.3134    0.0000 C   0  0
    7.0623   -9.6116    0.0000 O   0  0
    8.5623   -9.6094    0.0000 C   0  0
  1  2  1  0
  2  3  1  0
  3  4  2  0
  4  5  1  0
  5  6  1  0
  6  7  1  0
  7  8  3  0
  6  9  2  0
  9 10  1  0
 10 11  2  0
 11 12  1  0
 12 13  2  0
 13 14  1  0
 14 15  2  0
 15 16  1  0
 16 17  2  0
 17 12  1  0
 17 18  1  0
 18 10  1  0
 18 19  1  0
 19 20  1  0
 20 21  2  0
 21 22  1  0
 22 23  2  0
 23 24  1  0
 24 25  3  0
 23 26  1  0
 26 27  2  0
 27 20  1  0
  5 28  2  0
 28 29  1  0
 29 30  1  0
 30 31  1  0
 29 32  2  0
 32  3  1  0
 32 33  1  0
 33 34  1  0
M  END
> <Smiles>
COc1cc(/C(C#N)=C/c2cc3ccccc3n2Cc2ccc(C#N)cc2)cc(OC)c1OC

> <ID>
CHEMBL3409052

> <standard_value>
39

> <IC50_uM>
0.039

> <Activity>
Yes

> <pIC50>
7.408935393

> <BCI>
1

$$$$

  SciTegic03012415362D

 19 20  0  0  1  0            999 V2000
    6.6881   -4.4295    0.0000 C   0  0
    5.8072   -3.2154    0.0000 C   0  0
    4.9531   -1.9978    0.0000 C   0  0  1  0  0  0
    5.5449   -0.6195    0.0000 O   0  0
    4.2010   -3.2956    0.0000 C   0  0  1  0  0  0
    4.8111   -4.6641    0.0000 C   0  0
    6.3028   -4.8211    0.0000 O   0  0
    2.7343   -2.9815    0.0000 O   0  0
    2.5987   -1.5004    0.0000 C   0  0  1  0  0  0
    1.2990   -0.7500    0.0000 N   0  0
    1.2990    0.7500    0.0000 C   0  0
    0.0000    1.5000    0.0000 C   0  0
   -1.2990    0.7500    0.0000 C   0  0
   -2.5981    1.5000    0.0000 N   0  0
   -1.2990   -0.7500    0.0000 N   0  0
    0.0000   -1.5000    0.0000 C   0  0
    0.0000   -3.0000    0.0000 O   0  0
    3.9511   -0.8815    0.0000 C   0  0  2  0  0  0
    4.2566    0.5871    0.0000 O   0  0
  1  2  3  0
  2  3  1  0
  3  4  1  6
  3  5  1  0
  5  6  1  1
  6  7  1  0
  5  8  1  0
  8  9  1  0
  9 10  1  1
 10 11  1  0
 11 12  2  0
 12 13  1  0
 13 14  1  0
 13 15  2  0
 15 16  1  0
 16 10  1  0
 16 17  2  0
  9 18  1  0
 18  3  1  0
 18 19  1  6
M  END
> <Smiles>
C#C[C@@]1(O)[C@@H](CO)O[C@@H](n2ccc(N)nc2=O)[C@@H]1O

> <ID>
CHEMBL573352

> <standard_value>
39.81

> <IC50_uM>
0.03981

> <Activity>
Yes

> <pIC50>
7.400007822

> <BCI>
1

$$$$

  SciTegic03012415362D

 41 46  0  0  1  0            999 V2000
   15.2487   -7.3238    0.0000 C   0  0
   13.8176   -6.8746    0.0000 O   0  0
   12.7117   -7.8893    0.0000 C   0  0
   13.0405   -9.3529    0.0000 C   0  0
   11.9374  -10.3693    0.0000 C   0  0
   12.2663  -11.8336    0.0000 C   0  0
   13.6378  -12.4088    0.0000 N   0  0
   13.4957  -13.9012    0.0000 C   0  0
   14.5104  -15.0059    0.0000 C   0  0
   14.0610  -16.4370    0.0000 C   0  0
   12.5969  -16.7634    0.0000 C   0  0
   11.5822  -15.6587    0.0000 C   0  0
   12.0316  -14.2276    0.0000 C   0  0
   11.2689  -12.9369    0.0000 S   0  0
   10.5056   -9.9222    0.0000 C   0  0
   10.1768   -8.4587    0.0000 C   0  0
   11.2799   -7.4422    0.0000 C   0  0
   10.9480   -5.9785    0.0000 O   0  0
    9.5148   -5.5332    0.0000 C   0  0
    9.1829   -4.0695    0.0000 C   0  0
    7.7497   -3.6242    0.0000 C   0  0
    7.4178   -2.1605    0.0000 C   0  0
    5.9845   -1.7152    0.0000 C   0  0
    5.6526   -0.2515    0.0000 O   0  0
    4.2194    0.1938    0.0000 C   0  0
    3.1198   -0.8265    0.0000 C   0  0
    1.6852   -0.3846    0.0000 C   0  0
    1.3514    1.0778    0.0000 C   0  0
    2.4522    2.0983    0.0000 C   0  0
    3.8856    1.6562    0.0000 C   0  0
    4.9837    2.6793    0.0000 O   0  0
    4.6478    4.1412    0.0000 C   0  0
    0.0000    1.7286    0.0000 C   0  0
    0.0000    3.2286    0.0000 O   0  0
   -1.3515    1.0777    0.0000 N   0  0
   -2.6395    1.8472    0.0000 C   0  0
   -3.7691    0.8603    0.0000 C   0  0
   -3.1796   -0.5190    0.0000 C   0  0
   -1.6852   -0.3847    0.0000 C   0  0  1  0  0  0
   -0.7500   -1.5574    0.0000 C   0  0
    0.7500   -1.5574    0.0000 N   0  0
  1  2  1  0
  2  3  1  0
  3  4  2  0
  4  5  1  0
  5  6  1  0
  6  7  2  0
  7  8  1  0
  8  9  2  0
  9 10  1  0
 10 11  2  0
 11 12  1  0
 12 13  2  0
 13  8  1  0
 13 14  1  0
 14  6  1  0
  5 15  2  0
 15 16  1  0
 16 17  2  0
 17  3  1  0
 17 18  1  0
 18 19  1  0
 19 20  1  0
 20 21  1  0
 21 22  1  0
 22 23  1  0
 23 24  1  0
 24 25  1  0
 25 26  2  0
 26 27  1  0
 27 28  2  0
 28 29  1  0
 29 30  2  0
 30 25  1  0
 30 31  1  0
 31 32  1  0
 28 33  1  0
 33 34  2  0
 33 35  1  0
 35 36  1  0
 36 37  1  0
 37 38  1  0
 39 38  1  6
 39 35  1  0
 39 40  1  0
 40 41  2  0
 41 27  1  0
M  END
> <Smiles>
COc1cc(-c2nc3ccccc3s2)ccc1OCCCCCOc1cc2c(cc1OC)C(=O)N1CCC[C@H]1C=N2

> <ID>
CHEMBL1171057

> <standard_value>
39.81

> <IC50_uM>
0.03981

> <Activity>
Yes

> <pIC50>
7.400007822

> <BCI>
1

$$$$

  SciTegic03012415362D

 37 41  0  0  1  0            999 V2000
    3.8983   -0.7459    0.0000 C   0  0
    2.6003   -1.4977    0.0000 O   0  0
    1.2990   -0.7500    0.0000 C   0  0
    1.2990    0.7500    0.0000 C   0  0
    0.0000    1.5000    0.0000 C   0  0
   -0.0031    3.0008    0.0000 C   0  0
   -1.3039    3.7494    0.0000 C   0  0
   -1.3070    5.2502    0.0000 C   0  0
   -2.6061    6.0003    0.0000 C   0  0
   -2.6061    7.5003    0.0000 C   0  0
   -3.9052    8.2502    0.0000 O   0  0
   -1.3071    8.2503    0.0000 C   0  0
   -0.9957    9.7168    0.0000 C   0  0
   -1.9961   10.8321    0.0000 C   0  0
   -1.5306   12.2589    0.0000 C   0  0
   -2.5328   13.3761    0.0000 C   0  0
   -2.0676   14.8021    0.0000 C   0  0
   -4.0005   13.0665    0.0000 C   0  0
    0.4961    9.8736    0.0000 C   0  0
    1.1062    8.5033    0.0000 N   0  0
   -0.0080    7.5003    0.0000 C   0  0
   -0.0080    6.0003    0.0000 C   0  0
   -1.2990    0.7500    0.0000 C   0  0
   -1.2990   -0.7500    0.0000 C   0  0
    0.0000   -1.5000    0.0000 C   0  0
    0.0000   -3.0000    0.0000 O   0  0
   -1.2990   -3.7500    0.0000 C   0  0  2  0  0  0
    0.0000   -4.5000    0.0000 C   0  0
   -1.2990   -5.2500    0.0000 C   0  0
   -2.5981   -6.0000    0.0000 C   0  0
   -3.8971   -5.2500    0.0000 C   0  0  1  0  0  0
   -5.1961   -6.0000    0.0000 O   0  0
   -3.8971   -3.7500    0.0000 C   0  0
   -3.8617   -2.2504    0.0000 C   0  0
   -5.1782   -4.5303    0.0000 C   0  0
   -2.5981   -3.0000    0.0000 C   0  0  1  0  0  0
   -2.5981   -1.5000    0.0000 C   0  0
  1  2  1  0
  2  3  1  0
  3  4  2  0
  4  5  1  0
  5  6  1  0
  6  7  2  0
  7  8  1  0
  8  9  2  0
  9 10  1  0
 10 11  1  0
 10 12  2  0
 12 13  1  0
 13 14  1  0
 14 15  1  0
 15 16  2  0
 16 17  1  0
 16 18  1  0
 13 19  2  0
 19 20  1  0
 20 21  1  0
 21 12  1  0
 21 22  2  0
 22  8  1  0
  5 23  2  0
 23 24  1  0
 24 25  2  0
 25  3  1  0
 25 26  1  0
 26 27  1  0
 27 28  1  1
 27 29  1  0
 29 30  1  0
 30 31  1  0
 31 32  1  1
 31 33  1  0
 33 34  1  0
 33 35  1  0
 33 36  1  0
 36 27  1  0
 36 37  1  1
 37 24  1  0
M  END
> <Smiles>
COc1cc(/C=C/c2cc(O)c3c(CC=C(C)C)c[nH]c3c2)cc2c1O[C@]1(C)CC[C@@H](O)C(C)(C)[C@H]1C2

> <ID>
CHEMBL3233613

> <standard_value>
40.74

> <IC50_uM>
0.04074

> <Activity>
Yes

> <pIC50>
7.389978975

> <BCI>
1

$$$$

  SciTegic03012415362D

 29 33  0  0  0  0            999 V2000
    3.1882   -2.6401    0.0000 C   0  0
    2.7248   -1.2135    0.0000 C   0  0
    1.2990   -0.7500    0.0000 C   0  0
    1.2990    0.7500    0.0000 C   0  0
    2.7248    1.2135    0.0000 N   0  0
    3.6065    0.0000    0.0000 N   0  0
    5.1047    0.0031    0.0000 C   0  0
    5.8570   -1.2946    0.0000 O   0  0
    5.8532    1.3040    0.0000 C   0  0
    5.2275    2.6532    0.0000 N   0  0
    6.3387    3.6608    0.0000 N   0  0
    6.1766    5.1528    0.0000 C   0  0
    4.8575    5.8565    0.0000 C   0  0
    4.8082    7.3557    0.0000 C   0  0
    6.0818    8.1480    0.0000 C   0  0
    6.0325    9.6472    0.0000 Cl  0  0
    7.4049    7.4412    0.0000 C   0  0
    7.4542    5.9420    0.0000 C   0  0
    7.6403    2.9153    0.0000 C   0  0
    7.3336    1.4470    0.0000 C   0  0
    8.3346    0.3299    0.0000 O   0  0
    0.0000    1.5000    0.0000 C   0  0
    0.0000    3.0000    0.0000 C   0  0
   -1.2991    3.7500    0.0000 C   0  0
   -2.5981    3.0000    0.0000 C   0  0
   -2.5981    1.5000    0.0000 C   0  0
   -1.2990    0.7500    0.0000 C   0  0
   -1.2990   -0.7500    0.0000 C   0  0
    0.0000   -1.5000    0.0000 C   0  0
  1  2  1  0
  2  3  2  0
  3  4  1  0
  4  5  2  0
  5  6  1  0
  6  2  1  0
  6  7  1  0
  7  8  2  0
  7  9  1  0
  9 10  2  0
 10 11  1  0
 11 12  1  0
 12 13  2  0
 13 14  1  0
 14 15  2  0
 15 16  1  0
 15 17  1  0
 17 18  2  0
 18 12  1  0
 11 19  1  0
 19 20  2  0
 20  9  1  0
 20 21  1  0
  4 22  1  0
 22 23  2  0
 23 24  1  0
 24 25  2  0
 25 26  1  0
 26 27  2  0
 27 22  1  0
 27 28  1  0
 28 29  1  0
 29  3  1  0
M  END
> <Smiles>
Cc1c2c(nn1C(=O)c1nn(-c3ccc(Cl)cc3)cc1O)-c1ccccc1CC2

> <ID>
CHEMBL1090207

> <standard_value>
41

> <IC50_uM>
0.041

> <Activity>
Yes

> <pIC50>
7.387216143

> <BCI>
1

$$$$

  SciTegic03012415362D

 37 39  0  0  1  0            999 V2000
    6.9023   -6.2024    0.0000 C   0  0
    6.0170   -7.4133    0.0000 N   0  0
    6.6237   -8.7860    0.0000 C   0  0
    8.1158   -8.9478    0.0000 C   0  0
    8.7225  -10.3206    0.0000 C   0  0
   10.2146  -10.4824    0.0000 C   0  0
   10.8210  -11.8544    0.0000 Cl  0  0
    4.5250   -7.2514    0.0000 P   0  0  3  0  0  0
    3.0337   -7.0896    0.0000 O   0  0
    3.6392   -8.4629    0.0000 O   0  0
    4.2446   -9.8362    0.0000 C   0  0
    3.3587  -11.0477    0.0000 C   0  0
    3.8279  -12.4590    0.0000 C   0  0
    2.6100  -13.3345    0.0000 C   0  0
    1.4009  -12.4467    0.0000 C   0  0
   -0.0273  -12.8995    0.0000 N   0  3
   -1.1354  -11.8886    0.0000 O   0  0
   -0.3492  -14.3646    0.0000 O   0  5
    1.8717  -11.0225    0.0000 O   0  0
    3.9196   -5.8781    0.0000 O   0  0
    4.8054   -4.6666    0.0000 C   0  0
    4.2010   -3.2956    0.0000 C   0  0  1  0  0  0
    2.7343   -2.9815    0.0000 O   0  0
    2.5987   -1.5004    0.0000 C   0  0  1  0  0  0
    1.2990   -0.7500    0.0000 N   0  0
    1.2990    0.7500    0.0000 C   0  0
    0.0000    1.5000    0.0000 C   0  0
   -1.2990    0.7500    0.0000 C   0  0
   -2.5981    1.5000    0.0000 N   0  0
   -1.2990   -0.7500    0.0000 N   0  0
    0.0000   -1.5000    0.0000 C   0  0
    0.0000   -3.0000    0.0000 O   0  0
    3.9511   -0.8815    0.0000 C   0  0
    2.8177    0.1010    0.0000 F   0  0
    5.3823   -0.4323    0.0000 F   0  0
    4.9531   -1.9978    0.0000 C   0  0  2  0  0  0
    6.4451   -1.8434    0.0000 O   0  0
  1  2  1  0
  2  3  1  0
  3  4  1  0
  4  5  1  0
  5  6  1  0
  6  7  1  0
  2  8  1  0
  8  9  2  0
  8 10  1  4
 10 11  1  0
 11 12  1  0
 12 13  2  0
 13 14  1  0
 14 15  2  0
 15 16  1  0
 16 17  2  0
 16 18  1  0
 15 19  1  0
 19 12  1  0
  8 20  1  0
 20 21  1  0
 22 21  1  1
 22 23  1  0
 23 24  1  0
 24 25  1  1
 25 26  1  0
 26 27  2  0
 27 28  1  0
 28 29  1  0
 28 30  2  0
 30 31  1  0
 31 25  1  0
 31 32  2  0
 24 33  1  0
 33 34  1  0
 33 35  1  0
 33 36  1  0
 36 22  1  0
 36 37  1  6
M  CHG  2  16   1  18  -1
M  END
> <Smiles>
CN(CCCCCl)P(=O)(OCc1ccc([N+](=O)[O-])o1)OC[C@H]1O[C@@H](n2ccc(N)nc2=O)C(F)(F)[C@@H]1O

> <ID>
CHEMBL231312

> <standard_value>
42

> <IC50_uM>
0.042

> <Activity>
Yes

> <pIC50>
7.37675071

> <BCI>
1

$$$$

  SciTegic03012415362D

 35 40  0  0  1  0            999 V2000
   -0.0133   -5.9950    0.0000 C   0  0
    1.2883   -5.2495    0.0000 C   0  0  1  0  0  0
    1.2935   -3.7495    0.0000 O   0  0
    2.5951   -3.0039    0.0000 C   0  0  2  0  0  0
    2.5973   -1.5031    0.0000 O   0  0
    1.2990   -0.7500    0.0000 C   0  0  1  0  0  0
    1.2990    0.7500    0.0000 C   0  0
    0.0000    1.5000    0.0000 C   0  0
   -1.2990    0.7500    0.0000 C   0  0  1  0  0  0
   -1.2990    2.2500    0.0000 C   0  0
   -1.2990   -0.7500    0.0000 C   0  0  2  0  0  0
   -2.5981   -1.5000    0.0000 C   0  0
   -3.8971   -0.7500    0.0000 C   0  0
   -3.8971    0.7500    0.0000 C   0  0  2  0  0  0
   -2.5981    1.5000    0.0000 C   0  0  2  0  0  0
   -2.5981    3.0000    0.0000 C   0  0
   -3.8971    3.7500    0.0000 C   0  0
   -5.1962    3.0000    0.0000 C   0  0  2  0  0  0
   -5.3512    4.4919    0.0000 C   0  0
   -6.6112    3.4635    0.0000 C   0  0  1  0  0  0
   -7.0732    4.8913    0.0000 C   0  0
   -6.2824    6.1452    0.0000 C   0  0
   -7.2559    7.2864    0.0000 C   0  0
   -6.9049    8.7447    0.0000 O   0  0
   -8.6421    6.7131    0.0000 O   0  0
   -8.5252    5.2177    0.0000 C   0  0
   -7.4928    2.2500    0.0000 C   0  0
   -6.6111    1.0364    0.0000 C   0  0
   -5.1962    1.5000    0.0000 C   0  0  2  0  0  0
   -5.3512    0.0080    0.0000 O   0  0
    0.0000   -1.5000    0.0000 C   0  0
    3.8915   -3.7585    0.0000 C   0  0
    3.8864   -5.2585    0.0000 C   0  0
    2.5847   -6.0040    0.0000 C   0  0  2  0  0  0
    2.5796   -7.5040    0.0000 O   0  0
  2  1  1  1
  2  3  1  0
  3  4  1  0
  4  5  1  6
  6  5  1  6
  6  7  1  0
  7  8  1  0
  8  9  1  0
  9 10  1  6
  9 11  1  0
 11 12  1  1
 12 13  1  0
 14 13  1  1
 14 15  1  0
 15  9  1  0
 15 16  1  6
 16 17  1  0
 17 18  1  0
 18 19  1  6
 18 20  1  0
 20 21  1  6
 21 22  2  0
 22 23  1  0
 23 24  2  0
 23 25  1  0
 25 26  1  0
 26 21  1  0
 20 27  1  0
 27 28  1  0
 28 29  1  0
 29 14  1  0
 29 18  1  0
 29 30  1  6
 11 31  1  0
 31  6  1  0
  4 32  1  0
 32 33  1  0
 33 34  1  0
 34  2  1  0
 34 35  1  6
M  END
> <Smiles>
C[C@H]1O[C@H](O[C@H]2CC[C@@]3(C)[C@H](CC[C@@H]4[C@@H]3CC[C@]3(C)[C@@H](C5=CC(=O)OC5)CC[C@]43O)C2)CC[C@@H]1O

> <ID>
CHEMBL1651625

> <standard_value>
43.8

> <IC50_uM>
0.0438

> <Activity>
Yes

> <pIC50>
7.358525889

> <BCI>
1

$$$$

  SciTegic03012415362D

 24 27  0  0  1  0            999 V2000
    2.6640   -0.1280    0.0000 C   0  0
    1.2990   -0.7500    0.0000 C   0  0  2  0  0  0
    1.2990    0.7500    0.0000 C   0  0
    0.0000    1.5000    0.0000 C   0  0
   -1.2990    0.7500    0.0000 C   0  0  2  0  0  0
   -2.5981    1.5000    0.0000 C   0  0
   -2.5981    3.0000    0.0000 C   0  0
   -3.8972    3.7500    0.0000 C   0  0
   -5.1962    3.0000    0.0000 C   0  0
   -6.4975    3.7477    0.0000 O   0  0
   -7.7962    2.9954    0.0000 S   0  0
   -7.7935    1.4954    0.0000 N   0  0
   -9.0968    3.7427    0.0000 O   0  0
   -9.0938    2.2429    0.0000 O   0  0
   -5.1962    1.5000    0.0000 C   0  0
   -3.8971    0.7500    0.0000 C   0  0
   -3.8971   -0.7500    0.0000 C   0  0
   -2.5981   -1.5000    0.0000 C   0  0
   -1.2990   -0.7500    0.0000 C   0  0  1  0  0  0
    0.0000   -1.5000    0.0000 C   0  0  2  0  0  0
    0.3326   -2.9571    0.0000 C   0  0
    1.8253   -3.1044    0.0000 C   0  0
    2.4266   -1.7302    0.0000 C   0  0  2  0  0  0
    3.8900   -1.4008    0.0000 O   0  0
  2  1  1  1
  2  3  1  0
  3  4  1  0
  5  4  1  1
  5  6  1  0
  6  7  2  0
  7  8  1  0
  8  9  2  0
  9 10  1  0
 10 11  1  0
 11 12  1  0
 11 13  2  0
 11 14  2  0
  9 15  1  0
 15 16  2  0
 16  6  1  0
 16 17  1  0
 17 18  1  0
 19 18  1  6
 19  5  1  0
 19 20  1  0
 20  2  1  0
 20 21  1  1
 21 22  1  0
 22 23  1  0
 23  2  1  0
 23 24  1  1
M  END
> <Smiles>
C[C@]12CC[C@@H]3c4ccc(OS(N)(=O)=O)cc4CC[C@H]3[C@@H]1CC[C@@H]2O

> <ID>
CHEMBL219321

> <standard_value>
44

> <IC50_uM>
0.044

> <Activity>
Yes

> <pIC50>
7.356547324

> <BCI>
1

$$$$

  SciTegic03012415362D

 27 30  0  0  0  0            999 V2000
    3.8912   -5.2570    0.0000 N   0  0
    3.8933   -3.7570    0.0000 C   0  0
    2.5951   -3.0039    0.0000 C   0  0
    2.5973   -1.5031    0.0000 C   0  0
    1.2990   -0.7500    0.0000 N   0  0
    1.2990    0.7500    0.0000 C   0  0
    0.0000    1.5000    0.0000 C   0  0
   -1.2990    0.7500    0.0000 C   0  0
   -2.5981    1.5000    0.0000 C   0  0
   -3.8971    0.7500    0.0000 C   0  0
   -3.8971   -0.7500    0.0000 C   0  0
   -5.1953   -1.5031    0.0000 N   0  3
   -5.1932   -3.0031    0.0000 O   0  0
   -6.4957   -0.7554    0.0000 O   0  5
   -2.5981   -1.5000    0.0000 C   0  0
   -1.2990   -0.7500    0.0000 C   0  0
    0.0000   -1.5000    0.0000 C   0  0
    0.0000   -3.0000    0.0000 O   0  0
    0.3114    2.9665    0.0000 C   0  0
   -0.6924    4.0811    0.0000 O   0  0
    1.8032    3.1233    0.0000 C   0  0
    2.6837    4.3363    0.0000 C   0  0
    4.1755    4.1795    0.0000 C   0  0
    5.0572    5.3931    0.0000 I   0  0
    4.7856    2.8092    0.0000 C   0  0
    3.9040    1.5957    0.0000 C   0  0
    2.4133    1.7530    0.0000 C   0  0
  1  2  1  0
  2  3  1  0
  3  4  1  0
  4  5  1  0
  5  6  1  0
  6  7  2  0
  7  8  1  0
  8  9  2  0
  9 10  1  0
 10 11  2  0
 11 12  1  0
 12 13  2  0
 12 14  1  0
 11 15  1  0
 15 16  2  0
 16  8  1  0
 16 17  1  0
 17  5  1  0
 17 18  2  0
  7 19  1  0
 19 20  2  0
 19 21  1  0
 21 22  2  0
 22 23  1  0
 23 24  1  0
 23 25  2  0
 25 26  1  0
 26 27  2  0
 27 21  1  0
 27  6  1  0
M  CHG  2  12   1  14  -1
M  END
> <Smiles>
NCCCn1c2c(c3ccc([N+](=O)[O-])cc3c1=O)C(=O)c1cc(I)ccc1-2

> <ID>
CHEMBL242433

> <standard_value>
44

> <IC50_uM>
0.044

> <Activity>
Yes

> <pIC50>
7.356547324

> <BCI>
1

$$$$

  SciTegic03012415362D

 23 22  0  0  1  0            999 V2000
    0.0007    0.0004    0.0000 C   0  0
    1.3000    0.7500    0.0000 C   0  0
    2.6000    1.5000    0.0000 C   0  0  1  0  0  0
    2.6000    3.0000    0.0000 O   0  0
    3.9000    0.7500    0.0000 C   0  0
    5.2000    1.5000    0.0000 C   0  0
    6.5000    0.7500    0.0000 C   0  0
    7.7999    1.5000    0.0000 C   0  0
    9.0999    0.7500    0.0000 C   0  0
   10.3999    1.5000    0.0000 C   0  0
   11.6999    0.7500    0.0000 C   0  0
   12.9999    1.5000    0.0000 C   0  0
   14.2999    0.7500    0.0000 C   0  0
   15.5999    1.5000    0.0000 C   0  0
   16.8999    0.7500    0.0000 C   0  0
   18.1999    1.5000    0.0000 C   0  0
   19.4998    0.7500    0.0000 C   0  0
   19.5013   -0.7508    0.0000 C   0  0
   20.8013   -1.5008    0.0000 C   0  0
   20.8027   -3.0016    0.0000 C   0  0
   22.1027   -3.7516    0.0000 C   0  0
   22.1041   -5.2525    0.0000 C   0  0
   23.4034   -6.0021    0.0000 C   0  0
  1  2  3  0
  2  3  1  0
  3  4  1  1
  3  5  1  0
  5  6  2  0
  6  7  1  0
  7  8  1  0
  8  9  1  0
  9 10  1  0
 10 11  1  0
 11 12  1  0
 12 13  1  0
 13 14  1  0
 14 15  1  0
 15 16  1  0
 16 17  2  0
 17 18  1  0
 18 19  1  0
 19 20  1  0
 20 21  1  0
 21 22  1  0
 22 23  1  0
M  END
> <Smiles>
C#C[C@@H](O)/C=C/CCCCCCCCC/C=C\CCCCCC

> <ID>
CHEMBL455110

> <standard_value>
44.67

> <IC50_uM>
0.04467

> <Activity>
Yes

> <pIC50>
7.349984048

> <BCI>
1

$$$$

  SciTegic03012415362D

 26 27  0  0  1  0            999 V2000
   -3.2806   -3.9906    0.0000 C   0  0
   -1.8747   -4.5136    0.0000 C   0  0  2  0  0  0
   -1.6252   -5.9927    0.0000 O   0  0
   -0.7185   -3.5567    0.0000 C   0  0
   -0.9682   -2.0768    0.0000 S   0  0  3  0  0  0
   -2.3741   -1.5538    0.0000 O   0  0
    0.1900   -1.1200    0.0000 C   0  0  2  0  0  0
    1.3300   -1.6300    0.0000 C   0  0
    2.3100   -1.1700    0.0000 C   0  0
    3.5183   -2.0588    0.0000 O   0  0
    2.5200    0.3600    0.0000 O   0  0
    4.1500    0.6800    0.0000 C   0  0  1  0  0  0
    5.3192   -0.2597    0.0000 C   0  0
    4.1100    2.4200    0.0000 C   0  0
    2.6000    2.8000    0.0000 C   0  0
    2.3100    4.3400    0.0000 C   0  0
    0.3300    4.3600    0.0000 C   0  0
    0.0000    2.8600    0.0000 C   0  0
   -1.5600    2.3300    0.0000 C   0  0  2  0  0  0
   -3.0100    2.8100    0.0000 C   0  0
   -3.9100    1.5700    0.0000 C   0  0  2  0  0  0
   -5.4100    1.5671    0.0000 O   0  0
   -3.0100    0.3400    0.0000 C   0  0
   -1.5600    0.8100    0.0000 C   0  0  1  0  0  0
    0.0000    0.3600    0.0000 C   0  0  2  0  0  0
    1.1387    1.3364    0.0000 O   0  0
  2  1  1  1
  2  3  1  0
  2  4  1  0
  5  4  1  4
  5  6  2  0
  7  5  1  1
  7  8  1  0
  8  9  1  0
  9 10  2  0
  9 11  1  0
 11 12  1  0
 12 13  1  6
 12 14  1  0
 14 15  1  0
 15 16  1  0
 16 17  1  0
 17 18  2  0
 19 18  1  1
 19 20  1  0
 20 21  1  0
 21 22  1  1
 21 23  1  0
 24 23  1  6
 24 19  1  0
 24 25  1  0
 25  7  1  0
 25 26  1  6
M  END
> <Smiles>
C[C@H](O)C[S+]([O-])[C@@H]1CC(=O)O[C@@H](C)CCC/C=C/[C@@H]2C[C@H](O)C[C@H]2[C@@H]1O

> <ID>
CHEMBL339368

> <standard_value>
45

> <IC50_uM>
0.045

> <Activity>
Yes

> <pIC50>
7.346787486

> <BCI>
1

$$$$

  SciTegic03012415362D

 26 29  0  0  1  0            999 V2000
    3.8983   -0.7459    0.0000 C   0  0
    2.6003   -1.4977    0.0000 S   0  0
    1.2990   -0.7500    0.0000 C   0  0
    1.2990    0.7500    0.0000 C   0  0
    0.0000    1.5000    0.0000 C   0  0
   -1.2990    0.7500    0.0000 C   0  0
   -1.2990   -0.7500    0.0000 C   0  0
    0.0000   -1.5000    0.0000 C   0  0
   -0.0031   -3.0008    0.0000 O   0  0
   -1.3039   -3.7494    0.0000 S   0  0
   -2.6016   -2.9971    0.0000 N   0  0
   -1.3070   -5.2494    0.0000 O   0  0
   -2.6044   -4.4969    0.0000 O   0  0
   -2.5981    1.5000    0.0000 C   0  0
   -2.5981    3.0000    0.0000 C   0  0
   -1.2991    3.7500    0.0000 C   0  0  2  0  0  0
    0.0000    3.0000    0.0000 C   0  0  2  0  0  0
    1.2990    3.7500    0.0000 C   0  0
    1.2990    5.2500    0.0000 C   0  0
    0.0000    6.0000    0.0000 C   0  0  2  0  0  0
    1.2211    6.8711    0.0000 C   0  0
   -0.2851    7.4666    0.0000 C   0  0
    0.7318    8.5693    0.0000 O   0  0
   -1.7759    7.6329    0.0000 C   0  0
   -2.3947    6.2665    0.0000 C   0  0
   -1.2991    5.2500    0.0000 C   0  0  1  0  0  0
  1  2  1  0
  2  3  1  0
  3  4  2  0
  4  5  1  0
  5  6  2  0
  6  7  1  0
  7  8  2  0
  8  3  1  0
  8  9  1  0
  9 10  1  0
 10 11  1  0
 10 12  2  0
 10 13  2  0
  6 14  1  0
 14 15  1  0
 16 15  1  1
 16 17  1  0
 17  5  1  0
 17 18  1  6
 18 19  1  0
 19 20  1  0
 20 21  1  6
 20 22  1  0
 22 23  2  0
 22 24  1  0
 24 25  1  0
 26 25  1  6
 26 16  1  0
 26 20  1  0
M  END
> <Smiles>
CSc1cc2c(cc1OS(N)(=O)=O)CC[C@@H]1[C@@H]2CC[C@]2(C)C(=O)CC[C@@H]12

> <ID>
CHEMBL362734

> <standard_value>
45

> <IC50_uM>
0.045

> <Activity>
Yes

> <pIC50>
7.346787486

> <BCI>
1

$$$$

  SciTegic03012415362D

 36 39  0  0  0  0            999 V2000
   -0.4585  -12.2246    0.0000 C   0  0
    0.2897  -10.9245    0.0000 O   0  0
    1.7905  -10.9214    0.0000 C   0  0
    2.5405  -12.2205    0.0000 C   0  0
    4.0405  -12.2205    0.0000 C   0  0
    4.7905  -10.9215    0.0000 C   0  0
    6.2914  -10.9185    0.0000 C   0  0
    7.0452  -12.2162    0.0000 C   0  0
    6.2991  -13.5185    0.0000 C   0  0
    7.0506  -14.8166    0.0000 C   0  0
    6.3022  -16.1166    0.0000 C   0  0
    7.0570  -17.4139    0.0000 O   0  0
    8.5569  -17.4099    0.0000 C   0  0
    4.8022  -16.1185    0.0000 C   0  0
    4.0508  -17.4176    0.0000 O   0  0
    2.5508  -17.4174    0.0000 C   0  0
    4.0506  -14.8204    0.0000 C   0  0
    2.5498  -14.8192    0.0000 O   0  0
    1.8000  -13.5200    0.0000 C   0  0
    4.7990  -13.5204    0.0000 C   0  0
    4.0406   -9.6224    0.0000 C   0  0
    2.5405   -9.6223    0.0000 C   0  0
    1.7928   -8.3210    0.0000 O   0  0
    2.5451   -7.0223    0.0000 C   0  0
    1.7974   -5.7210    0.0000 C   0  0
    0.2974   -5.7184    0.0000 O   0  0
    2.5497   -4.4224    0.0000 N   0  0
    1.8032   -3.1233    0.0000 C   0  0
    2.4133   -1.7530    0.0000 N   0  0
    1.2990   -0.7500    0.0000 C   0  0
    1.2990    0.7500    0.0000 C   0  0
    0.0000    1.5000    0.0000 C   0  0
   -1.2990    0.7500    0.0000 C   0  0
   -1.2990   -0.7500    0.0000 C   0  0
    0.0000   -1.5000    0.0000 C   0  0
    0.3114   -2.9665    0.0000 S   0  0
  1  2  1  0
  2  3  1  0
  3  4  2  0
  4  5  1  0
  5  6  2  0
  6  7  1  0
  7  8  2  0
  8  9  1  0
  9 10  2  0
 10 11  1  0
 11 12  1  0
 12 13  1  0
 11 14  2  0
 14 15  1  0
 15 16  1  0
 14 17  1  0
 17 18  1  0
 18 19  1  0
 17 20  2  0
 20  9  1  0
  6 21  1  0
 21 22  2  0
 22  3  1  0
 22 23  1  0
 23 24  1  0
 24 25  1  0
 25 26  2  0
 25 27  1  0
 27 28  1  0
 28 29  2  0
 29 30  1  0
 30 31  2  0
 31 32  1  0
 32 33  2  0
 33 34  1  0
 34 35  2  0
 35 30  1  0
 35 36  1  0
 36 28  1  0
M  END
> <Smiles>
COc1ccc(/C=C\c2cc(OC)c(OC)c(OC)c2)cc1OCC(=O)Nc1nc2ccccc2s1

> <ID>
CHEMBL2088730

> <standard_value>
45

> <IC50_uM>
0.045

> <Activity>
Yes

> <pIC50>
7.346787486

> <BCI>
1

$$$$

  SciTegic03012415362D

 23 25  0  0  0  0            999 V2000
    4.0408  -12.2198    0.0000 C   0  0
    4.7927  -10.9219    0.0000 O   0  0
    4.0450   -9.6205    0.0000 C   0  0
    2.5450   -9.6205    0.0000 C   0  0
    1.7951   -8.3214    0.0000 C   0  0
    2.5451   -7.0223    0.0000 C   0  0
    1.7974   -5.7210    0.0000 C   0  0
    0.2966   -5.7184    0.0000 C   0  0
   -1.2034   -5.7158    0.0000 N   0  0
    2.5497   -4.4224    0.0000 C   0  0
    1.8032   -3.1233    0.0000 C   0  0
    2.4133   -1.7530    0.0000 C   0  0
    1.2990   -0.7500    0.0000 C   0  0
    1.2990    0.7500    0.0000 C   0  0
    0.0000    1.5000    0.0000 C   0  0
   -1.2990    0.7500    0.0000 C   0  0
   -1.2990   -0.7500    0.0000 C   0  0
    0.0000   -1.5000    0.0000 C   0  0
    0.3114   -2.9665    0.0000 N   0  0
    4.0452   -7.0225    0.0000 C   0  0
    4.7951   -8.3215    0.0000 C   0  0
    6.2959   -8.3185    0.0000 O   0  0
    7.0441   -7.0184    0.0000 C   0  0
  1  2  1  0
  2  3  1  0
  3  4  2  0
  4  5  1  0
  5  6  2  0
  6  7  1  0
  7  8  1  0
  8  9  3  0
  7 10  2  0
 10 11  1  0
 11 12  2  0
 12 13  1  0
 13 14  2  0
 14 15  1  0
 15 16  2  0
 16 17  1  0
 17 18  2  0
 18 13  1  0
 18 19  1  0
 19 11  1  0
  6 20  1  0
 20 21  2  0
 21  3  1  0
 21 22  1  0
 22 23  1  0
M  END
> <Smiles>
COc1ccc(/C(C#N)=C/c2cc3ccccc3[nH]2)cc1OC

> <ID>
CHEMBL3409051

> <standard_value>
47

> <IC50_uM>
0.047

> <Activity>
Yes

> <pIC50>
7.327902142

> <BCI>
1

$$$$

  SciTegic03012415362D

 28 33  0  0  1  0            999 V2000
    2.6018   -5.9994    0.0000 C   0  0
    3.9008   -5.2492    0.0000 O   0  0
    3.9014   -3.7484    0.0000 C   0  0
    2.6012   -3.0004    0.0000 C   0  0
    2.5987   -1.5004    0.0000 C   0  0
    1.2990   -0.7500    0.0000 C   0  0  1  0  0  0
    1.2990    0.7500    0.0000 C   0  0
    0.0000    1.5000    0.0000 C   0  0
    0.3114    2.9665    0.0000 C   0  0
    1.8032    3.1233    0.0000 O   0  0
    2.4133    1.7530    0.0000 C   0  0
    3.8805    1.4410    0.0000 O   0  0
   -1.2990    0.7500    0.0000 N   0  0
   -1.2990   -0.7500    0.0000 C   0  0
   -2.5981   -1.5000    0.0000 C   0  0
   -2.5981   -3.0000    0.0000 C   0  0
   -1.2990   -3.7500    0.0000 C   0  0
    0.0000   -3.0000    0.0000 C   0  0
    0.0000   -1.5000    0.0000 C   0  0
   -1.6105   -5.2165    0.0000 O   0  0
   -3.1022   -5.3733    0.0000 C   0  0
   -3.7124   -4.0030    0.0000 O   0  0
    3.8967   -0.7484    0.0000 C   0  0
    5.1969   -1.4963    0.0000 C   0  0
    5.1993   -2.9963    0.0000 C   0  0
    6.6258   -3.4575    0.0000 O   0  0
    7.5055   -2.2426    0.0000 C   0  0
    6.6219   -1.0305    0.0000 O   0  0
  1  2  1  0
  2  3  1  0
  3  4  2  0
  4  5  1  0
  6  5  1  6
  6  7  1  0
  7  8  2  0
  8  9  1  0
  9 10  1  0
 10 11  1  0
 11  7  1  0
 11 12  2  0
  8 13  1  0
 13 14  1  0
 14 15  2  0
 15 16  1  0
 16 17  2  0
 17 18  1  0
 18 19  2  0
 19 14  1  0
 19  6  1  0
 17 20  1  0
 20 21  1  0
 21 22  1  0
 22 16  1  0
  5 23  2  0
 23 24  1  0
 24 25  2  0
 25  3  1  0
 25 26  1  0
 26 27  1  0
 27 28  1  0
 28 24  1  0
M  END
> <Smiles>
COc1cc([C@H]2C3=C(COC3=O)Nc3cc4c(cc32)OCO4)cc2c1OCO2

> <ID>
CHEMBL1917378

> <standard_value>
48.3

> <IC50_uM>
0.0483

> <Activity>
Yes

> <pIC50>
7.316052869

> <BCI>
1

$$$$

  SciTegic03012415362D

 33 37  0  0  0  0            999 V2000
    3.8983   -0.7459    0.0000 C   0  0
    2.6003   -1.4977    0.0000 O   0  0
    1.2990   -0.7500    0.0000 C   0  0
    1.2990    0.7500    0.0000 C   0  0
    0.0000    1.5000    0.0000 C   0  0
   -1.2990    0.7500    0.0000 C   0  0
   -1.2990   -0.7500    0.0000 C   0  0
    0.0000   -1.5000    0.0000 C   0  0
    0.0000   -3.0000    0.0000 O   0  0
   -2.4133    1.7530    0.0000 C   0  0
   -1.8032    3.1233    0.0000 C   0  0
   -2.6838    4.3363    0.0000 C   0  0
   -2.0737    5.7066    0.0000 C   0  0
   -2.9554    6.9201    0.0000 C   0  0
   -4.4472    6.7633    0.0000 C   0  0
   -5.3318    7.9757    0.0000 N   0  3
   -6.8234    7.8168    0.0000 O   0  0
   -4.7241    9.3471    0.0000 O   0  5
   -5.0572    5.3930    0.0000 C   0  0
   -4.1756    4.1795    0.0000 C   0  0
   -4.7857    2.8092    0.0000 C   0  0
   -6.2774    2.6524    0.0000 O   0  0
   -3.9040    1.5956    0.0000 N   0  0
   -4.5167    0.2256    0.0000 C   0  0
   -6.0094    0.0702    0.0000 C   0  0
   -6.6221   -1.2999    0.0000 C   0  0
   -8.1149   -1.4552    0.0000 N   0  0
   -8.8471   -2.7497    0.0000 C   0  0
  -10.3134   -2.4334    0.0000 C   0  0
  -10.4656   -0.9411    0.0000 N   0  0
   -9.0934   -0.3352    0.0000 C   0  0
   -0.3115    2.9665    0.0000 C   0  0
    0.6923    4.0811    0.0000 O   0  0
  1  2  1  0
  2  3  1  0
  3  4  2  0
  4  5  1  0
  5  6  2  0
  6  7  1  0
  7  8  2  0
  8  3  1  0
  8  9  1  0
  6 10  1  0
 10 11  2  0
 11 12  1  0
 12 13  2  0
 13 14  1  0
 14 15  2  0
 15 16  1  0
 16 17  2  0
 16 18  1  0
 15 19  1  0
 19 20  2  0
 20 12  1  0
 20 21  1  0
 21 22  2  0
 21 23  1  0
 23 10  1  0
 23 24  1  0
 24 25  1  0
 25 26  1  0
 26 27  1  0
 27 28  1  0
 28 29  2  0
 29 30  1  0
 30 31  2  0
 31 27  1  0
 11 32  1  0
 32  5  1  0
 32 33  2  0
M  CHG  2  16   1  18  -1
M  END
> <Smiles>
Br.COc1cc2c(cc1O)-c1c(c3ccc([N+](=O)[O-])cc3c(=O)n1CCCn1ccnc1)C2=O

> <ID>
CHEMBL3422391

> <standard_value>
49

> <IC50_uM>
0.049

> <Activity>
Yes

> <pIC50>
7.30980392

> <BCI>
1

> <RemovedSalts>
HBr

$$$$

  SciTegic03012415362D

 30 33  0  0  0  0            999 V2000
    3.8983   -0.7459    0.0000 C   0  0
    2.6003   -1.4977    0.0000 O   0  0
    1.2990   -0.7500    0.0000 C   0  0
    1.2990    0.7500    0.0000 C   0  0
    0.0000    1.5000    0.0000 C   0  0
    0.0000    3.0000    0.0000 C   0  0
   -1.2991    3.7500    0.0000 C   0  0
   -2.5981    3.0000    0.0000 N   0  0
   -3.8994    3.7477    0.0000 C   0  0
   -5.1981    2.9954    0.0000 C   0  0
   -6.4994    3.7432    0.0000 C   0  0
   -7.7981    2.9909    0.0000 N   0  0
   -9.0994    3.7386    0.0000 N   0  3
  -10.3999    4.4859    0.0000 N   0  5
   -2.5981    1.5000    0.0000 C   0  0
   -3.8971    0.7500    0.0000 O   0  0
   -1.2990    0.7500    0.0000 C   0  0
   -1.2990   -0.7500    0.0000 C   0  0
    0.0000   -1.5000    0.0000 C   0  0
   -0.0031   -3.0008    0.0000 O   0  0
   -1.3032   -3.7490    0.0000 C   0  0
   -0.9876    5.2165    0.0000 C   0  0
   -1.8692    6.4288    0.0000 C   0  0
   -1.2591    7.7991    0.0000 C   0  0
    0.2327    7.9559    0.0000 C   0  0
    0.8428    9.3262    0.0000 N   0  0
    1.1144    6.7424    0.0000 C   0  0
    0.5042    5.3733    0.0000 C   0  0
    1.1143    4.0030    0.0000 C   0  0
    2.5815    3.6910    0.0000 O   0  0
  1  2  1  0
  2  3  1  0
  3  4  2  0
  4  5  1  0
  5  6  1  0
  6  7  2  0
  7  8  1  0
  8  9  1  0
  9 10  1  0
 10 11  1  0
 11 12  1  0
 12 13  2  0
 13 14  2  0
  8 15  1  0
 15 16  2  0
 15 17  1  0
 17  5  2  0
 17 18  1  0
 18 19  2  0
 19  3  1  0
 19 20  1  0
 20 21  1  0
  7 22  1  0
 22 23  2  0
 23 24  1  0
 24 25  2  0
 25 26  1  0
 25 27  1  0
 27 28  2  0
 28 22  1  0
 28 29  1  0
 29  6  1  0
 29 30  2  0
M  CHG  2  13   1  14  -1
M  END
> <Smiles>
COc1cc2c3c(n(CCCN=[N+]=[N-])c(=O)c2cc1OC)-c1ccc(N)cc1C3=O

> <ID>
CHEMBL230212

> <standard_value>
50

> <IC50_uM>
0.05

> <Activity>
Yes

> <pIC50>
7.301029996

> <BCI>
1

$$$$

  SciTegic03012415362D

 38 42  0  0  1  0            999 V2000
    3.8983   -0.7459    0.0000 C   0  0
    2.6003   -1.4977    0.0000 O   0  0
    1.2990   -0.7500    0.0000 C   0  0
    1.2990    0.7500    0.0000 C   0  0
    0.0000    1.5000    0.0000 C   0  0
   -0.0031    3.0008    0.0000 C   0  0
   -1.3039    3.7494    0.0000 C   0  0
   -1.3070    5.2502    0.0000 C   0  0
   -2.6061    6.0003    0.0000 C   0  0
   -2.6061    7.5003    0.0000 C   0  0
   -3.9074    8.2480    0.0000 O   0  0
   -5.2054    7.4961    0.0000 C   0  0
   -1.3071    8.2503    0.0000 C   0  0
   -0.9957    9.7168    0.0000 C   0  0
   -1.9961   10.8321    0.0000 C   0  0
   -1.5306   12.2589    0.0000 C   0  0
   -2.5328   13.3761    0.0000 C   0  0
   -2.0676   14.8021    0.0000 C   0  0
   -4.0005   13.0665    0.0000 C   0  0
    0.4961    9.8736    0.0000 C   0  0
    1.1062    8.5033    0.0000 N   0  0
   -0.0080    7.5003    0.0000 C   0  0
   -0.0080    6.0003    0.0000 C   0  0
   -1.2990    0.7500    0.0000 C   0  0
   -1.2990   -0.7500    0.0000 C   0  0
    0.0000   -1.5000    0.0000 C   0  0
    0.0000   -3.0000    0.0000 O   0  0
   -1.2990   -3.7500    0.0000 C   0  0  2  0  0  0
    0.0000   -4.5000    0.0000 C   0  0
   -1.2990   -5.2500    0.0000 C   0  0
   -2.5981   -6.0000    0.0000 C   0  0
   -3.8971   -5.2500    0.0000 C   0  0  1  0  0  0
   -5.1961   -6.0000    0.0000 O   0  0
   -3.8971   -3.7500    0.0000 C   0  0
   -3.8617   -2.2504    0.0000 C   0  0
   -5.1782   -4.5303    0.0000 C   0  0
   -2.5981   -3.0000    0.0000 C   0  0  1  0  0  0
   -2.5981   -1.5000    0.0000 C   0  0
  1  2  1  0
  2  3  1  0
  3  4  2  0
  4  5  1  0
  5  6  1  0
  6  7  2  0
  7  8  1  0
  8  9  2  0
  9 10  1  0
 10 11  1  0
 11 12  1  0
 10 13  2  0
 13 14  1  0
 14 15  1  0
 15 16  1  0
 16 17  2  0
 17 18  1  0
 17 19  1  0
 14 20  2  0
 20 21  1  0
 21 22  1  0
 22 13  1  0
 22 23  2  0
 23  8  1  0
  5 24  2  0
 24 25  1  0
 25 26  2  0
 26  3  1  0
 26 27  1  0
 27 28  1  0
 28 29  1  1
 28 30  1  0
 30 31  1  0
 31 32  1  0
 32 33  1  1
 32 34  1  0
 34 35  1  0
 34 36  1  0
 34 37  1  0
 37 28  1  0
 37 38  1  1
 38 25  1  0
M  END
> <Smiles>
COc1cc(/C=C/c2cc(OC)c3c(CC=C(C)C)c[nH]c3c2)cc2c1O[C@]1(C)CC[C@@H](O)C(C)(C)[C@H]1C2

> <ID>
CHEMBL3233619

> <standard_value>
50.12

> <IC50_uM>
0.05012

> <Activity>
Yes

> <pIC50>
7.299988938

> <BCI>
1

$$$$

  SciTegic03012415362D

 31 34  0  0  0  0            999 V2000
    2.5951   -3.0031    0.0000 C   0  0
    2.5973   -1.5031    0.0000 O   0  0
    1.2990   -0.7500    0.0000 C   0  0
    1.2990    0.7500    0.0000 C   0  0
    0.0000    1.5000    0.0000 N   0  0
   -1.2990    0.7500    0.0000 C   0  0
   -1.2990   -0.7500    0.0000 C   0  0
    0.0000   -1.5000    0.0000 C   0  0
   -2.7248   -1.2135    0.0000 C   0  0
   -3.1882   -2.6402    0.0000 O   0  0
   -3.6065    0.0000    0.0000 C   0  0
   -2.7248    1.2135    0.0000 C   0  0
   -3.3339    2.5831    0.0000 N   0  0
   -2.4537    3.7988    0.0000 C   0  0
   -3.0656    5.1692    0.0000 C   0  0
   -2.1854    6.3848    0.0000 C   0  0
   -2.7972    7.7553    0.0000 N   0  0
   -1.9171    8.9709    0.0000 C   0  0
   -2.5286   10.3406    0.0000 C   0  0
   -0.4251    8.8161    0.0000 C   0  0
   -4.8257    2.7399    0.0000 C   0  0
   -5.4358    4.1102    0.0000 O   0  0
   -5.7073    1.5263    0.0000 C   0  0
   -7.1991    1.6831    0.0000 C   0  0
   -8.0808    0.4696    0.0000 C   0  0
   -9.5737    0.6234    0.0000 N   0  3
  -10.4537   -0.5914    0.0000 O   0  0
  -10.1862    1.9927    0.0000 O   0  5
   -7.4707   -0.9007    0.0000 C   0  0
   -5.9789   -1.0575    0.0000 C   0  0
   -5.0972    0.1560    0.0000 C   0  0
  1  2  1  0
  2  3  1  0
  3  4  2  0
  4  5  1  0
  5  6  2  0
  6  7  1  0
  7  8  2  0
  8  3  1  0
  7  9  1  0
  9 10  2  0
  9 11  1  0
 11 12  2  0
 12  6  1  0
 12 13  1  0
 13 14  1  0
 14 15  1  0
 15 16  1  0
 16 17  1  0
 17 18  1  0
 18 19  1  0
 18 20  1  0
 13 21  1  0
 21 22  2  0
 21 23  1  0
 23 24  2  0
 24 25  1  0
 25 26  1  0
 26 27  2  0
 26 28  1  0
 25 29  2  0
 29 30  1  0
 30 31  2  0
 31 11  1  0
 31 23  1  0
M  CHG  2  26   1  28  -1
M  END
> <Smiles>
COc1cnc2c(c1)C(=O)c1c-2n(CCCNC(C)C)c(=O)c2cc([N+](=O)[O-])ccc12

> <ID>
CHEMBL4100617

> <standard_value>
51

> <IC50_uM>
0.051

> <Activity>
Yes

> <pIC50>
7.292429824

> <BCI>
1

$$$$

  SciTegic03012415362D

 29 32  0  0  0  0            999 V2000
    5.1887   -6.0105    0.0000 C   0  0
    3.8912   -5.2578    0.0000 N   0  0
    3.8933   -3.7570    0.0000 C   0  0
    2.5951   -3.0039    0.0000 C   0  0
    2.5973   -1.5031    0.0000 C   0  0
    1.2990   -0.7500    0.0000 N   0  0
    1.2990    0.7500    0.0000 C   0  0
    0.0000    1.5000    0.0000 C   0  0
   -1.2990    0.7500    0.0000 C   0  0
   -2.5981    1.5000    0.0000 C   0  0
   -3.8971    0.7500    0.0000 C   0  0
   -3.8971   -0.7500    0.0000 C   0  0
   -5.1953   -1.5031    0.0000 N   0  3
   -5.1932   -3.0031    0.0000 O   0  0
   -6.4957   -0.7554    0.0000 O   0  5
   -2.5981   -1.5000    0.0000 C   0  0
   -1.2990   -0.7500    0.0000 C   0  0
    0.0000   -1.5000    0.0000 C   0  0
    0.0000   -3.0000    0.0000 O   0  0
    0.3114    2.9665    0.0000 C   0  0
   -0.6924    4.0811    0.0000 O   0  0
    1.8032    3.1233    0.0000 C   0  0
    2.6837    4.3363    0.0000 C   0  0
    4.1755    4.1795    0.0000 C   0  0
    5.0602    5.3919    0.0000 O   0  0
    6.5517    5.2330    0.0000 C   0  0
    4.7856    2.8092    0.0000 C   0  0
    3.9040    1.5957    0.0000 N   0  0
    2.4133    1.7530    0.0000 C   0  0
  1  2  1  0
  2  3  1  0
  3  4  1  0
  4  5  1  0
  5  6  1  0
  6  7  1  0
  7  8  2  0
  8  9  1  0
  9 10  2  0
 10 11  1  0
 11 12  2  0
 12 13  1  0
 13 14  2  0
 13 15  1  0
 12 16  1  0
 16 17  2  0
 17  9  1  0
 17 18  1  0
 18  6  1  0
 18 19  2  0
  8 20  1  0
 20 21  2  0
 20 22  1  0
 22 23  2  0
 23 24  1  0
 24 25  1  0
 25 26  1  0
 24 27  2  0
 27 28  1  0
 28 29  2  0
 29 22  1  0
 29  7  1  0
M  CHG  2  13   1  15  -1
M  END
> <Smiles>
CNCCCn1c2c(c3ccc([N+](=O)[O-])cc3c1=O)C(=O)c1cc(OC)cnc1-2

> <ID>
CHEMBL4069903

> <standard_value>
51

> <IC50_uM>
0.051

> <Activity>
Yes

> <pIC50>
7.292429824

> <BCI>
1

$$$$

  SciTegic03012415362D

 23 25  0  0  0  0            999 V2000
   -5.6253   -5.6857    0.0000 C   0  0
   -5.1640   -7.1130    0.0000 O   0  0
   -3.6967   -7.4283    0.0000 C   0  0
   -3.2334   -8.8550    0.0000 C   0  0
   -1.7662   -9.1671    0.0000 C   0  0
   -1.2997  -10.5936    0.0000 O   0  0
    0.1679  -10.9036    0.0000 C   0  0
   -0.7624   -8.0525    0.0000 C   0  0
   -1.2256   -6.6258    0.0000 C   0  0
   -0.2234   -5.5086    0.0000 C   0  0
    1.2451   -5.8183    0.0000 C   0  0
    2.7128   -6.1279    0.0000 N   0  0
   -0.6890   -4.0818    0.0000 C   0  0
    0.3114   -2.9665    0.0000 C   0  0
    1.8032   -3.1233    0.0000 C   0  0
    2.4133   -1.7530    0.0000 N   0  0
    1.2990   -0.7500    0.0000 C   0  0
    1.2990    0.7500    0.0000 C   0  0
    0.0000    1.5000    0.0000 C   0  0
   -1.2990    0.7500    0.0000 C   0  0
   -1.2990   -0.7500    0.0000 C   0  0
    0.0000   -1.5000    0.0000 C   0  0
   -2.6928   -6.3138    0.0000 C   0  0
  1  2  1  0
  2  3  1  0
  3  4  2  0
  4  5  1  0
  5  6  1  0
  6  7  1  0
  5  8  2  0
  8  9  1  0
  9 10  1  0
 10 11  1  0
 11 12  3  0
 10 13  2  0
 13 14  1  0
 14 15  2  0
 15 16  1  0
 16 17  1  0
 17 18  2  0
 18 19  1  0
 19 20  2  0
 20 21  1  0
 21 22  2  0
 22 14  1  0
 22 17  1  0
  9 23  2  0
 23  3  1  0
M  END
> <Smiles>
COc1cc(OC)cc(/C(C#N)=C/c2c[nH]c3ccccc23)c1

> <ID>
CHEMBL3409061

> <standard_value>
52

> <IC50_uM>
0.052

> <Activity>
Yes

> <pIC50>
7.283996656

> <BCI>
1

$$$$

  SciTegic03012415362D

 42 48  0  0  1  0            999 V2000
    2.6018   -5.9994    0.0000 C   0  0
    3.9008   -5.2492    0.0000 O   0  0
    3.9014   -3.7484    0.0000 C   0  0
    2.6012   -3.0004    0.0000 C   0  0
    2.5987   -1.5004    0.0000 C   0  0
    1.2990   -0.7500    0.0000 C   0  0  2  0  0  0
    1.2990    0.7500    0.0000 C   0  0
    2.5981    1.5000    0.0000 C   0  0
    2.5981    3.0000    0.0000 C   0  0
    1.2990    3.7500    0.0000 C   0  0
    0.0000    3.0000    0.0000 C   0  0
    0.0000    1.5000    0.0000 C   0  0
   -1.2990    0.7500    0.0000 C   0  0  1  0  0  0
   -2.5973    1.5031    0.0000 N   0  0
   -2.5951    3.0039    0.0000 C   0  0
   -3.8916    3.7585    0.0000 C   0  0
   -3.8864    5.2585    0.0000 C   0  0
   -2.5847    6.0040    0.0000 N   0  0
   -2.5765    7.5048    0.0000 C   0  0
   -1.2731    8.2489    0.0000 C   0  0
   -1.2626    9.7488    0.0000 C   0  0
    0.0416   10.4899    0.0000 C   0  0
    1.3354    9.7309    0.0000 C   0  0
    1.3250    8.2309    0.0000 C   0  0
    0.0208    7.4899    0.0000 C   0  0
   -1.2883    5.2495    0.0000 C   0  0
   -1.2935    3.7495    0.0000 C   0  0
   -1.2990   -0.7500    0.0000 C   0  0  1  0  0  0
   -2.4133   -1.7530    0.0000 C   0  0
   -1.8032   -3.1233    0.0000 O   0  0
   -0.3114   -2.9665    0.0000 C   0  0
    0.6924   -4.0811    0.0000 O   0  0
    0.0000   -1.5000    0.0000 C   0  0  2  0  0  0
    1.6104    5.2165    0.0000 O   0  0
    3.1022    5.3733    0.0000 C   0  0
    3.7123    4.0030    0.0000 O   0  0
    3.8967   -0.7484    0.0000 C   0  0
    5.1969   -1.4963    0.0000 C   0  0
    6.4939   -0.7411    0.0000 O   0  0
    6.4894    0.7589    0.0000 C   0  0
    5.1993   -2.9963    0.0000 C   0  0
    6.4995   -3.7442    0.0000 O   0  0
  1  2  1  0
  2  3  1  0
  3  4  2  0
  4  5  1  0
  6  5  1  1
  6  7  1  0
  7  8  2  0
  8  9  1  0
  9 10  2  0
 10 11  1  0
 11 12  2  0
 12  7  1  0
 12 13  1  0
 13 14  1  6
 14 15  1  0
 15 16  1  0
 16 17  1  0
 17 18  1  0
 18 19  1  0
 19 20  1  0
 20 21  2  0
 21 22  1  0
 22 23  2  0
 23 24  1  0
 24 25  2  0
 25 20  1  0
 18 26  1  0
 26 27  1  0
 27 15  1  0
 13 28  1  0
 28 29  1  6
 29 30  1  0
 30 31  1  0
 31 32  2  0
 33 31  1  1
 33  6  1  0
 33 28  1  0
 10 34  1  0
 34 35  1  0
 35 36  1  0
 36  9  1  0
  5 37  2  0
 37 38  1  0
 38 39  1  0
 39 40  1  0
 38 41  2  0
 41  3  1  0
 41 42  1  0
M  END
> <Smiles>
COc1cc([C@@H]2c3cc4c(cc3[C@@H](NC3CCN(Cc5ccccc5)CC3)[C@H]3COC(=O)[C@H]23)OCO4)cc(OC)c1O.Cl

> <ID>
CHEMBL554550

> <standard_value>
53.7

> <IC50_uM>
0.0537

> <Activity>
Yes

> <pIC50>
7.270025714

> <BCI>
1

> <RemovedSalts>
HCl

$$$$

  SciTegic03012415362D

 31 34  0  0  1  0            999 V2000
    3.8983   -0.7459    0.0000 C   0  0
    2.6003   -1.4977    0.0000 C   0  0
    1.2990   -0.7500    0.0000 C   0  0
    1.2990    0.7500    0.0000 C   0  0
    0.0000    1.5000    0.0000 C   0  0
   -1.2990    0.7500    0.0000 C   0  0
   -1.2990   -0.7500    0.0000 C   0  0
    0.0000   -1.5000    0.0000 C   0  0
   -0.0031   -3.0008    0.0000 O   0  0
   -1.3039   -3.7494    0.0000 S   0  0
   -2.6016   -2.9971    0.0000 N   0  0
   -1.3070   -5.2494    0.0000 O   0  0
   -2.6044   -4.4969    0.0000 O   0  0
   -2.5981    1.5000    0.0000 C   0  0
   -2.5981    3.0000    0.0000 C   0  0
   -1.2991    3.7500    0.0000 C   0  0  2  0  0  0
    0.0000    3.0000    0.0000 C   0  0  2  0  0  0
    1.2990    3.7500    0.0000 C   0  0
    1.2990    5.2500    0.0000 C   0  0
    0.0000    6.0000    0.0000 C   0  0  2  0  0  0
    1.2211    6.8711    0.0000 C   0  0
   -0.2851    7.4666    0.0000 C   0  0  1  0  0  0
    0.7337    8.5650    0.0000 C   0  0
    2.1972    8.2322    0.0000 O   0  0
    3.2178    9.3325    0.0000 S   0  0
    2.7750   10.7657    0.0000 N   0  0
    4.6805    8.9999    0.0000 O   0  0
    4.2374   10.4327    0.0000 O   0  0
   -1.7759    7.6329    0.0000 C   0  0
   -2.3947    6.2665    0.0000 C   0  0
   -1.2991    5.2500    0.0000 C   0  0  1  0  0  0
  1  2  1  0
  2  3  1  0
  3  4  2  0
  4  5  1  0
  5  6  2  0
  6  7  1  0
  7  8  2  0
  8  3  1  0
  8  9  1  0
  9 10  1  0
 10 11  1  0
 10 12  2  0
 10 13  2  0
  6 14  1  0
 14 15  1  0
 16 15  1  1
 16 17  1  0
 17  5  1  0
 17 18  1  6
 18 19  1  0
 19 20  1  0
 20 21  1  6
 20 22  1  0
 22 23  1  6
 23 24  1  0
 24 25  1  0
 25 26  1  0
 25 27  2  0
 25 28  2  0
 22 29  1  0
 29 30  1  0
 31 30  1  6
 31 16  1  0
 31 20  1  0
M  END
> <Smiles>
CCc1cc2c(cc1OS(N)(=O)=O)CC[C@@H]1[C@@H]2CC[C@]2(C)[C@@H](COS(N)(=O)=O)CC[C@@H]12

> <ID>
CHEMBL1812315

> <standard_value>
56

> <IC50_uM>
0.056

> <Activity>
Yes

> <pIC50>
7.251811973

> <BCI>
1

$$$$

  SciTegic03012415362D

 36 39  0  0  0  0            999 V2000
    3.8983   -0.7459    0.0000 C   0  0
    2.6003   -1.4977    0.0000 O   0  0
    1.2990   -0.7500    0.0000 C   0  0
    1.2990    0.7500    0.0000 C   0  0
    0.0000    1.5000    0.0000 C   0  0
   -1.2990    0.7500    0.0000 C   0  0
   -1.2990   -0.7500    0.0000 C   0  0
    0.0000   -1.5000    0.0000 C   0  0
   -0.0031   -3.0008    0.0000 O   0  0
   -1.3032   -3.7490    0.0000 C   0  0
   -2.4133    1.7530    0.0000 C   0  0
   -1.8032    3.1233    0.0000 C   0  0
   -2.6838    4.3363    0.0000 C   0  0
   -2.0737    5.7066    0.0000 C   0  0
   -2.9554    6.9201    0.0000 C   0  0
   -2.3421    8.2900    0.0000 O   0  0
   -0.8501    8.4446    0.0000 C   0  0
   -4.4472    6.7633    0.0000 C   0  0
   -5.3318    7.9757    0.0000 O   0  0
   -6.8234    7.8168    0.0000 C   0  0
   -5.0572    5.3930    0.0000 C   0  0
   -4.1756    4.1795    0.0000 C   0  0
   -4.7857    2.8092    0.0000 C   0  0
   -6.2774    2.6524    0.0000 O   0  0
   -3.9040    1.5956    0.0000 N   0  0
   -4.5167    0.2256    0.0000 C   0  0
   -6.0094    0.0702    0.0000 C   0  0
   -6.6221   -1.2999    0.0000 C   0  0
   -8.1149   -1.4552    0.0000 N   0  0
   -8.7276   -2.8253    0.0000 C   0  0
  -10.2203   -2.9807    0.0000 C   0  0
  -10.8330   -4.3507    0.0000 C   0  0
  -12.3258   -4.5061    0.0000 C   0  0
  -12.9382   -5.8754    0.0000 O   0  0
   -0.3115    2.9665    0.0000 C   0  0
    0.6923    4.0811    0.0000 O   0  0
  1  2  1  0
  2  3  1  0
  3  4  2  0
  4  5  1  0
  5  6  2  0
  6  7  1  0
  7  8  2  0
  8  3  1  0
  8  9  1  0
  9 10  1  0
  6 11  1  0
 11 12  2  0
 12 13  1  0
 13 14  2  0
 14 15  1  0
 15 16  1  0
 16 17  1  0
 15 18  2  0
 18 19  1  0
 19 20  1  0
 18 21  1  0
 21 22  2  0
 22 13  1  0
 22 23  1  0
 23 24  2  0
 23 25  1  0
 25 11  1  0
 25 26  1  0
 26 27  1  0
 27 28  1  0
 28 29  1  0
 29 30  1  0
 30 31  1  0
 31 32  1  0
 32 33  1  0
 33 34  1  0
 12 35  1  0
 35  5  1  0
 35 36  2  0
M  END
> <Smiles>
COc1cc2c(cc1OC)-c1c(c3cc(OC)c(OC)cc3c(=O)n1CCCNCCCCO)C2=O

> <ID>
CHEMBL340502

> <standard_value>
60

> <IC50_uM>
0.06

> <Activity>
Yes

> <pIC50>
7.22184875

> <BCI>
1

$$$$

  SciTegic03012415362D

 33 36  0  0  0  0            999 V2000
   13.8224   -7.6281    0.0000 O   0  0
   14.4371   -6.2598    0.0000 C   0  0
   13.5586   -5.0430    0.0000 C   0  0
   12.0654   -5.1944    0.0000 C   0  0
   11.1870   -3.9775    0.0000 C   0  0
    9.6938   -4.1290    0.0000 C   0  0
    8.8153   -2.9121    0.0000 C   0  0
    7.3221   -3.0635    0.0000 C   0  0
    6.4437   -1.8466    0.0000 C   0  0
    4.9531   -1.9978    0.0000 N   0  0
    3.9511   -0.8815    0.0000 C   0  0
    2.5987   -1.5004    0.0000 C   0  0
    1.2990   -0.7500    0.0000 C   0  0
    1.2990    0.7500    0.0000 C   0  0
    0.0000    1.5000    0.0000 C   0  0
   -1.2990    0.7500    0.0000 C   0  0
   -1.2990   -0.7500    0.0000 N   0  0
    0.0000   -1.5000    0.0000 C   0  0
    2.7343   -2.9815    0.0000 N   0  0
    4.2010   -3.2956    0.0000 N   0  0
   15.9303   -6.1084    0.0000 N   0  0
   16.8087   -7.3253    0.0000 C   0  0
   16.1917   -8.6926    0.0000 C   0  0
   17.0673   -9.9106    0.0000 C   0  0
   18.5598   -9.7613    0.0000 C   0  0
   19.1769   -8.3941    0.0000 C   0  0
   18.3013   -7.1761    0.0000 C   0  0
   18.9187   -5.8083    0.0000 C   0  0
   18.0452   -4.5888    0.0000 C   0  0
   18.6644   -3.2226    0.0000 C   0  0
   20.1572   -3.0757    0.0000 C   0  0
   21.0308   -4.2951    0.0000 C   0  0
   20.4116   -5.6613    0.0000 C   0  0
  1  2  2  0
  2  3  1  0
  3  4  1  0
  4  5  1  0
  5  6  1  0
  6  7  1  0
  7  8  1  0
  8  9  1  0
  9 10  1  0
 10 11  1  0
 11 12  2  0
 12 13  1  0
 13 14  2  0
 14 15  1  0
 15 16  2  0
 16 17  1  0
 17 18  2  0
 18 13  1  0
 12 19  1  0
 19 20  2  0
 20 10  1  0
  2 21  1  0
 21 22  1  0
 22 23  2  0
 23 24  1  0
 24 25  2  0
 25 26  1  0
 26 27  2  0
 27 22  1  0
 27 28  1  0
 28 29  2  0
 29 30  1  0
 30 31  2  0
 31 32  1  0
 32 33  2  0
 33 28  1  0
M  END
> <Smiles>
O=C(CCCCCCCn1cc(-c2cccnc2)nn1)Nc1ccccc1-c1ccccc1

> <ID>
CHEMBL568305

> <standard_value>
61.8

> <IC50_uM>
0.0618

> <Activity>
Yes

> <pIC50>
7.209011525

> <BCI>
1

$$$$

  SciTegic03012415362D

 42 49  0  0  1  0            999 V2000
    4.1900   -1.3600    0.0000 C   0  0
    2.6900   -1.3600    0.0000 C   0  0  1  0  0  0
    1.8400   -2.8200    0.0000 C   0  0  2  0  0  0
    2.5900   -4.1179    0.0000 O   0  0
    4.0908   -4.1184    0.0000 C   0  0
    4.8416   -5.4179    0.0000 C   0  0
    6.3425   -5.4183    0.0000 O   0  0
    7.0933   -6.7178    0.0000 C   0  0  1  0  0  0
    6.2357   -8.1652    0.0000 O   0  0
    7.0751   -9.6256    0.0000 C   0  0  2  0  0  0
    6.4614  -10.6800    0.0000 O   0  0
    6.7772  -11.8472    0.0000 C   0  0  1  0  0  0
    7.9677  -10.9347    0.0000 C   0  0
    7.8230  -12.4558    0.0000 C   0  0
    8.9939  -12.1537    0.0000 C   0  0
    9.6075  -11.0993    0.0000 C   0  0  1  0  0  0
   11.2919  -11.1076    0.0000 C   0  0  2  0  0  0
   12.0364  -12.4098    0.0000 C   0  0
   12.1419   -9.6469    0.0000 C   0  0
   11.3075   -8.1780    0.0000 C   0  0
    9.6095   -8.1732    0.0000 C   0  0  1  0  0  0
    8.7751   -6.7042    0.0000 C   0  0  1  0  0  0
    9.5245   -5.4048    0.0000 C   0  0
    8.7595   -9.6339    0.0000 C   0  0  1  0  0  0
    8.6055  -11.0715    0.0000 O   0  0
    7.6710  -11.6037    0.0000 O   0  0
    0.1500   -2.8200    0.0000 O   0  0
   -0.6900   -1.3600    0.0000 C   0  0  2  0  0  0
   -1.9100   -1.3600    0.0000 O   0  0
   -2.7600   -0.5000    0.0000 C   0  0  1  0  0  0
   -1.3725    0.0700    0.0000 C   0  0
   -2.7600    0.7100    0.0000 C   0  0
   -1.9100    1.5700    0.0000 C   0  0
   -0.6900    1.5700    0.0000 C   0  0  1  0  0  0
    0.1500    3.0300    0.0000 C   0  0  2  0  0  0
   -0.6010    4.3285    0.0000 C   0  0
    1.8400    3.0300    0.0000 C   0  0
    2.6900    1.5700    0.0000 C   0  0
    1.8400    0.1000    0.0000 C   0  0  2  0  0  0
    0.1500    0.1000    0.0000 C   0  0  1  0  0  0
   -1.1700    0.6900    0.0000 O   0  0
   -2.1000    0.1500    0.0000 O   0  0
  2  1  1  1
  2  3  1  0
  3  4  1  6
  4  5  1  0
  5  6  1  0
  6  7  1  0
  8  7  1  6
  8  9  1  0
 10  9  1  1
 10 11  1  0
 11 12  1  0
 12 13  1  1
 12 14  1  0
 14 15  1  0
 16 15  1  6
 16 17  1  0
 17 18  1  1
 17 19  1  0
 19 20  1  0
 21 20  1  6
 21 22  1  0
 22  8  1  0
 22 23  1  6
 21 24  1  0
 24 10  1  0
 24 16  1  0
 24 25  1  1
 25 26  1  0
 26 12  1  0
  3 27  1  0
 28 27  1  6
 28 29  1  0
 29 30  1  0
 30 31  1  6
 30 32  1  0
 32 33  1  0
 34 33  1  1
 34 35  1  0
 35 36  1  6
 35 37  1  0
 37 38  1  0
 39 38  1  1
 39  2  1  0
 39 40  1  0
 40 28  1  0
 40 34  1  0
 40 41  1  6
 41 42  1  0
 42 30  1  0
M  END
> <Smiles>
C[C@H]1[C@H](OCCO[C@H]2O[C@@H]3O[C@@]4(C)CC[C@H]5[C@H](C)CC[C@@H]([C@H]2C)[C@@]35OO4)O[C@@H]2O[C@@]3(C)CC[C@H]4[C@H](C)CC[C@@H]1[C@@]24OO3

> <ID>
CHEMBL444211

> <standard_value>
63

> <IC50_uM>
0.063

> <Activity>
Yes

> <pIC50>
7.200659451

> <BCI>
1

$$$$

  SciTegic03012415362D

 48 51  0  0  1  0            999 V2000
    3.7201    4.7796    0.0000 C   0  0
    2.7988    3.5958    0.0000 C   0  0
    1.4795    4.3098    0.0000 C   0  0
    0.0000    4.5567    0.0000 C   0  0  2  0  0  0
    0.0000    6.0567    0.0000 C   0  0
   -1.4796    4.3098    0.0000 C   0  0
   -1.9666    5.7285    0.0000 O   0  0
   -2.7988    3.5958    0.0000 N   0  0
   -3.8147    2.4922    0.0000 C   0  0  1  0  0  0
   -5.0704    3.3127    0.0000 C   0  0
   -4.4172    1.1186    0.0000 C   0  0
   -5.8713    1.4868    0.0000 O   0  0
   -4.5411   -0.3763    0.0000 N   0  0
   -6.0360   -0.5002    0.0000 C   0  0
   -4.1729   -1.8304    0.0000 C   0  0  2  0  0  0
   -5.5575   -2.4345    0.0000 C   0  0
   -6.7656   -1.5441    0.0000 C   0  0
   -6.7350   -0.0571    0.0000 C   0  0
   -5.5087    0.8066    0.0000 Br  0  0
   -8.1575    0.4188    0.0000 N   0  0
   -9.0490   -0.7865    0.0000 C   0  0
  -10.5421   -0.9302    0.0000 C   0  0
  -11.1642   -2.2952    0.0000 C   0  0
  -10.2931   -3.5163    0.0000 C   0  0
   -8.8000   -3.3726    0.0000 C   0  0
   -8.1780   -2.0076    0.0000 C   0  0
   -3.3524   -3.0861    0.0000 C   0  0
   -4.4560   -4.1021    0.0000 O   0  0
   -2.1687   -4.0075    0.0000 N   0  0
   -0.7500   -4.4945    0.0000 C   0  0  1  0  0  0
   -0.9970   -5.9748    0.0000 C   0  0
    0.3757   -6.6281    0.0000 C   0  0
    0.5031   -8.1227    0.0000 C   0  0
   -0.7275   -8.9804    0.0000 C   0  0
   -0.6001  -10.4749    0.0000 O   0  0
   -2.0856   -8.3434    0.0000 C   0  0
   -2.2130   -6.8489    0.0000 C   0  0
    0.7500   -4.4945    0.0000 C   0  0
    2.1687   -4.0075    0.0000 C   0  0
    2.8827   -5.3267    0.0000 O   0  0
    3.3524   -3.0861    0.0000 O   0  0
    4.1729   -1.8304    0.0000 C   0  0  1  0  0  0
    5.5465   -2.4329    0.0000 C   0  0
    4.5411   -0.3763    0.0000 C   0  0
    4.4172    1.1186    0.0000 C   0  0  1  0  0  0
    5.8713    1.4868    0.0000 C   0  0
    3.8147    2.4923    0.0000 C   0  0
    5.0704    3.3127    0.0000 O   0  0
  1  2  2  0
  2  3  1  0
  3  4  1  0
  4  5  1  1
  4  6  1  0
  6  7  2  0
  6  8  1  0
  8  9  1  0
  9 10  1  6
  9 11  1  0
 11 12  2  0
 11 13  1  0
 13 14  1  0
 13 15  1  0
 15 16  1  1
 16 17  1  0
 17 18  2  0
 18 19  1  0
 18 20  1  0
 20 21  1  0
 21 22  2  0
 22 23  1  0
 23 24  2  0
 24 25  1  0
 25 26  2  0
 26 17  1  0
 26 21  1  0
 15 27  1  0
 27 28  2  0
 27 29  1  0
 29 30  1  0
 30 31  1  6
 31 32  2  0
 32 33  1  0
 33 34  2  0
 34 35  1  0
 34 36  1  0
 36 37  2  0
 37 31  1  0
 30 38  1  0
 38 39  1  0
 39 40  2  0
 39 41  1  0
 41 42  1  0
 42 43  1  6
 42 44  1  0
 44 45  1  0
 45 46  1  6
 45 47  1  0
 47  2  1  0
 47 48  2  0
M  END
> <Smiles>
C=C1C[C@H](C)C(=O)N[C@@H](C)C(=O)N(C)[C@H](Cc2c(Br)[nH]c3ccccc23)C(=O)N[C@@H](c2ccc(O)cc2)CC(=O)O[C@@H](C)C[C@@H](C)C1=O

> <ID>
CHEMBL452984

> <standard_value>
64

> <IC50_uM>
0.064

> <Activity>
Yes

> <pIC50>
7.193820026

> <BCI>
1

$$$$

  SciTegic03012415362D

 31 35  0  0  1  0            999 V2000
    3.8926   -3.7566    0.0000 C   0  0
    2.5951   -3.0039    0.0000 C   0  0
    2.5973   -1.5031    0.0000 O   0  0
    1.2990   -0.7500    0.0000 C   0  0  2  0  0  0
    1.2990    0.7500    0.0000 C   0  0
    0.0000    1.5000    0.0000 C   0  0
    0.0000    3.0000    0.0000 C   0  0
   -1.2991    3.7500    0.0000 C   0  0
   -2.5981    3.0000    0.0000 C   0  0  2  0  0  0
   -2.5981    1.5000    0.0000 C   0  0  2  0  0  0
   -3.8971    0.7500    0.0000 C   0  0  1  0  0  0
   -3.8971   -0.7500    0.0000 O   0  0
   -5.1962    1.5000    0.0000 C   0  0
   -5.1962    3.0000    0.0000 C   0  0  2  0  0  0
   -6.5658    2.3882    0.0000 C   0  0
   -6.3051    3.9936    0.0000 C   0  0  1  0  0  0
   -7.7727    3.6798    0.0000 C   0  0
   -8.3390    2.2963    0.0000 C   0  0
   -9.8255    2.0951    0.0000 C   0  0
  -10.7429    3.2819    0.0000 C   0  0
  -12.2293    3.0808    0.0000 O   0  0
  -10.1738    4.6698    0.0000 O   0  0
   -8.6873    4.8709    0.0000 C   0  0
   -5.6950    5.3639    0.0000 C   0  0
   -4.2032    5.2072    0.0000 C   0  0
   -3.8971    3.7500    0.0000 C   0  0  2  0  0  0
   -2.6826    4.6302    0.0000 O   0  0
   -1.2990    0.7500    0.0000 C   0  0  2  0  0  0
   -2.5981    0.0000    0.0000 C   0  0
   -1.2990   -0.7500    0.0000 C   0  0
    0.0000   -1.5000    0.0000 C   0  0
  1  2  1  0
  2  3  1  0
  4  3  1  1
  4  5  1  0
  5  6  2  0
  6  7  1  0
  7  8  1  0
  9  8  1  6
 10  9  1  1
 10 11  1  0
 11 12  1  1
 11 13  1  0
 13 14  1  0
 14 15  1  1
 14 16  1  0
 16 17  1  1
 17 18  1  0
 18 19  2  0
 19 20  1  0
 20 21  2  0
 20 22  1  0
 22 23  1  0
 23 17  2  0
 16 24  1  0
 24 25  1  0
 25 26  1  0
 26  9  1  0
 26 14  1  0
 26 27  1  1
 10 28  1  0
 28  6  1  0
 28 29  1  1
 28 30  1  0
 30 31  1  0
 31  4  1  0
M  END
> <Smiles>
CCO[C@@H]1C=C2CC[C@@H]3[C@H]([C@@H](O)C[C@]4(C)[C@@H](c5ccc(=O)oc5)CC[C@]34O)[C@@]2(C)CC1

> <ID>
CHEMBL4876715

> <standard_value>
66

> <IC50_uM>
0.066

> <Activity>
Yes

> <pIC50>
7.180456064

> <BCI>
1

$$$$

  SciTegic03012415362D

 30 33  0  0  0  0            999 V2000
    5.1873   -7.5109    0.0000 C   0  0
    5.1894   -6.0109    0.0000 C   0  0
    3.8912   -5.2578    0.0000 N   0  0
    3.8933   -3.7570    0.0000 C   0  0
    2.5951   -3.0039    0.0000 C   0  0
    2.5973   -1.5031    0.0000 C   0  0
    1.2990   -0.7500    0.0000 N   0  0
    1.2990    0.7500    0.0000 C   0  0
    0.0000    1.5000    0.0000 C   0  0
   -1.2990    0.7500    0.0000 C   0  0
   -2.5981    1.5000    0.0000 C   0  0
   -3.8971    0.7500    0.0000 C   0  0
   -3.8971   -0.7500    0.0000 C   0  0
   -5.1953   -1.5031    0.0000 N   0  3
   -5.1932   -3.0031    0.0000 O   0  0
   -6.4957   -0.7554    0.0000 O   0  5
   -2.5981   -1.5000    0.0000 C   0  0
   -1.2990   -0.7500    0.0000 C   0  0
    0.0000   -1.5000    0.0000 C   0  0
    0.0000   -3.0000    0.0000 O   0  0
    0.3114    2.9665    0.0000 C   0  0
   -0.6924    4.0811    0.0000 O   0  0
    1.8032    3.1233    0.0000 C   0  0
    2.6837    4.3363    0.0000 C   0  0
    4.1755    4.1795    0.0000 C   0  0
    5.0602    5.3919    0.0000 O   0  0
    6.5517    5.2330    0.0000 C   0  0
    4.7856    2.8092    0.0000 C   0  0
    3.9040    1.5957    0.0000 N   0  0
    2.4133    1.7530    0.0000 C   0  0
  1  2  1  0
  2  3  1  0
  3  4  1  0
  4  5  1  0
  5  6  1  0
  6  7  1  0
  7  8  1  0
  8  9  2  0
  9 10  1  0
 10 11  2  0
 11 12  1  0
 12 13  2  0
 13 14  1  0
 14 15  2  0
 14 16  1  0
 13 17  1  0
 17 18  2  0
 18 10  1  0
 18 19  1  0
 19  7  1  0
 19 20  2  0
  9 21  1  0
 21 22  2  0
 21 23  1  0
 23 24  2  0
 24 25  1  0
 25 26  1  0
 26 27  1  0
 25 28  2  0
 28 29  1  0
 29 30  2  0
 30 23  1  0
 30  8  1  0
M  CHG  2  14   1  16  -1
M  END
> <Smiles>
CCNCCCn1c2c(c3ccc([N+](=O)[O-])cc3c1=O)C(=O)c1cc(OC)cnc1-2

> <ID>
CHEMBL4099532

> <standard_value>
70

> <IC50_uM>
0.07

> <Activity>
Yes

> <pIC50>
7.15490196

> <BCI>
1

$$$$

  SciTegic03012415362D

 27 29  0  0  0  0            999 V2000
    2.5951   -3.0031    0.0000 C   0  0
    2.5973   -1.5031    0.0000 O   0  0
    1.2990   -0.7500    0.0000 C   0  0
    1.2990    0.7500    0.0000 C   0  0
    0.0000    1.5000    0.0000 C   0  0
   -1.2990    0.7500    0.0000 C   0  0
   -2.7248    1.2135    0.0000 N   0  0
   -3.6065    0.0000    0.0000 C   0  0
   -2.7248   -1.2135    0.0000 C   0  0
   -3.1904   -2.6376    0.0000 C   0  0
   -4.6588   -2.9478    0.0000 C   0  0
   -5.6614   -1.8309    0.0000 C   0  0
   -6.6633   -0.7147    0.0000 N   0  0
   -5.1253   -4.3743    0.0000 C   0  0
   -6.5925   -4.6865    0.0000 C   0  0
   -7.0558   -6.1132    0.0000 C   0  0
   -8.5244   -6.4224    0.0000 O   0  0
   -9.5267   -5.3065    0.0000 C   0  0
   -6.0519   -7.2277    0.0000 C   0  0
   -6.5125   -8.6561    0.0000 O   0  0
   -5.5070   -9.7693    0.0000 C   0  0
   -4.5847   -6.9156    0.0000 C   0  0
   -3.5780   -8.0287    0.0000 O   0  0
   -2.1113   -7.7145    0.0000 C   0  0
   -4.1214   -5.4890    0.0000 C   0  0
   -1.2990   -0.7500    0.0000 C   0  0
    0.0000   -1.5000    0.0000 C   0  0
  1  2  1  0
  2  3  1  0
  3  4  2  0
  4  5  1  0
  5  6  2  0
  6  7  1  0
  7  8  1  0
  8  9  2  0
  9 10  1  0
 10 11  2  0
 11 12  1  0
 12 13  3  0
 11 14  1  0
 14 15  2  0
 15 16  1  0
 16 17  1  0
 17 18  1  0
 16 19  2  0
 19 20  1  0
 20 21  1  0
 19 22  1  0
 22 23  1  0
 23 24  1  0
 22 25  2  0
 25 14  1  0
  9 26  1  0
 26  6  1  0
 26 27  2  0
 27  3  1  0
M  END
> <Smiles>
COc1ccc2[nH]cc(/C=C(\C#N)c3cc(OC)c(OC)c(OC)c3)c2c1

> <ID>
CHEMBL3409062

> <standard_value>
71

> <IC50_uM>
0.071

> <Activity>
Yes

> <pIC50>
7.148741651

> <BCI>
1

$$$$

  SciTegic03012415362D

 32 35  0  0  0  0            999 V2000
    0.1679  -10.9036    0.0000 C   0  0
   -1.2997  -10.5936    0.0000 O   0  0
   -1.7662   -9.1671    0.0000 C   0  0
   -0.7624   -8.0525    0.0000 C   0  0
   -1.2256   -6.6258    0.0000 C   0  0
   -0.2234   -5.5086    0.0000 C   0  0
   -0.6890   -4.0818    0.0000 C   0  0
    0.3114   -2.9665    0.0000 C   0  0
    1.8032   -3.1233    0.0000 C   0  0
    2.4133   -1.7530    0.0000 N   0  0
    3.8794   -1.4442    0.0000 C   0  0
    4.8823   -2.5608    0.0000 C   0  0
    6.3506   -2.2538    0.0000 C   0  0
    7.3506   -3.3718    0.0000 C   0  0
    6.8824   -4.7969    0.0000 C   0  0
    5.4142   -5.1039    0.0000 C   0  0
    4.4142   -3.9859    0.0000 C   0  0
    1.2990   -0.7500    0.0000 C   0  0
    1.2990    0.7500    0.0000 N   0  0
    0.0000    1.5000    0.0000 C   0  0
    0.0000    3.0000    0.0000 N   0  0
   -1.2990    0.7500    0.0000 N   0  0
   -1.2990   -0.7500    0.0000 C   0  0
   -2.5981   -1.5000    0.0000 C   0  0
    0.0000   -1.5000    0.0000 C   0  0
   -2.6928   -6.3138    0.0000 C   0  0
   -3.6967   -7.4283    0.0000 C   0  0
   -5.1640   -7.1130    0.0000 O   0  0
   -5.6253   -5.6857    0.0000 C   0  0
   -3.2334   -8.8550    0.0000 C   0  0
   -4.2355   -9.9722    0.0000 O   0  0
   -3.7702  -11.3982    0.0000 C   0  0
  1  2  1  0
  2  3  1  0
  3  4  2  0
  4  5  1  0
  5  6  1  0
  6  7  1  0
  7  8  1  0
  8  9  2  0
  9 10  1  0
 10 11  1  0
 11 12  1  0
 12 13  2  0
 13 14  1  0
 14 15  2  0
 15 16  1  0
 16 17  2  0
 17 12  1  0
 10 18  1  0
 18 19  2  0
 19 20  1  0
 20 21  1  0
 20 22  2  0
 22 23  1  0
 23 24  1  0
 23 25  2  0
 25  8  1  0
 25 18  1  0
  5 26  2  0
 26 27  1  0
 27 28  1  0
 28 29  1  0
 27 30  2  0
 30  3  1  0
 30 31  1  0
 31 32  1  0
M  END
> <Smiles>
COc1cc(CCc2cn(Cc3ccccc3)c3nc(N)nc(C)c23)cc(OC)c1OC

> <ID>
CHEMBL388289

> <standard_value>
74.5

> <IC50_uM>
0.0745

> <Activity>
Yes

> <pIC50>
7.127843727

> <BCI>
1

$$$$

  SciTegic03012415362D

 52 57  0  0  1  0            999 V2000
   -2.6233   -7.4792    0.0000 C   0  0
   -2.6155   -5.9793    0.0000 C   0  0
   -3.9109   -5.2229    0.0000 O   0  0
   -1.3117   -5.2360    0.0000 O   0  0
   -0.0156   -5.9928    0.0000 C   0  0
    1.2883   -5.2495    0.0000 C   0  0  1  0  0  0
    1.2935   -3.7495    0.0000 O   0  0
    2.5951   -3.0039    0.0000 C   0  0  1  0  0  0
    2.5973   -1.5031    0.0000 O   0  0
    1.2990   -0.7500    0.0000 C   0  0  2  0  0  0
    1.2990    0.7500    0.0000 C   0  0
    0.0000    1.5000    0.0000 C   0  0
    0.0000    3.0000    0.0000 C   0  0
   -1.2991    3.7500    0.0000 C   0  0
   -2.5981    3.0000    0.0000 C   0  0  2  0  0  0
   -2.5981    1.5000    0.0000 C   0  0  2  0  0  0
   -3.8971    0.7500    0.0000 C   0  0  1  0  0  0
   -3.8971   -0.7500    0.0000 O   0  0
   -5.1962    1.5000    0.0000 C   0  0
   -5.1962    3.0000    0.0000 C   0  0  2  0  0  0
   -6.5658    2.3882    0.0000 C   0  0
   -6.3051    3.9936    0.0000 C   0  0  1  0  0  0
   -7.7727    3.6798    0.0000 C   0  0
   -8.3390    2.2963    0.0000 C   0  0
   -9.8255    2.0951    0.0000 C   0  0
  -10.7429    3.2819    0.0000 C   0  0
  -12.2293    3.0808    0.0000 O   0  0
  -10.1738    4.6698    0.0000 O   0  0
   -8.6873    4.8709    0.0000 C   0  0
   -5.6950    5.3639    0.0000 C   0  0
   -4.2032    5.2072    0.0000 C   0  0
   -3.8971    3.7500    0.0000 C   0  0  2  0  0  0
   -2.6826    4.6302    0.0000 O   0  0
   -1.2990    0.7500    0.0000 C   0  0  2  0  0  0
   -2.5981    0.0000    0.0000 C   0  0
   -1.2990   -0.7500    0.0000 C   0  0
    0.0000   -1.5000    0.0000 C   0  0
    3.8915   -3.7585    0.0000 C   0  0  2  0  0  0
    5.1924   -3.0099    0.0000 O   0  0
    5.1955   -1.5091    0.0000 C   0  0
    3.8977   -0.7568    0.0000 C   0  0
    6.4956   -0.7610    0.0000 O   0  0
    3.8864   -5.2585    0.0000 C   0  0  1  0  0  0
    5.1851   -6.0107    0.0000 O   0  0
    6.4863   -5.2629    0.0000 C   0  0
    6.4889   -3.7629    0.0000 C   0  0
    7.7843   -6.0147    0.0000 O   0  0
    2.5847   -6.0040    0.0000 C   0  0  2  0  0  0
    2.5826   -7.5048    0.0000 O   0  0
    3.8809   -8.2579    0.0000 C   0  0
    5.1812   -7.5101    0.0000 C   0  0
    3.8788   -9.7579    0.0000 O   0  0
  1  2  1  0
  2  3  2  0
  2  4  1  0
  4  5  1  0
  6  5  1  1
  6  7  1  0
  7  8  1  0
  8  9  1  1
 10  9  1  1
 10 11  1  0
 11 12  2  0
 12 13  1  0
 13 14  1  0
 15 14  1  6
 16 15  1  1
 16 17  1  0
 17 18  1  1
 17 19  1  0
 19 20  1  0
 20 21  1  1
 20 22  1  0
 22 23  1  1
 23 24  1  0
 24 25  2  0
 25 26  1  0
 26 27  2  0
 26 28  1  0
 28 29  1  0
 29 23  2  0
 22 30  1  0
 30 31  1  0
 31 32  1  0
 32 15  1  0
 32 20  1  0
 32 33  1  1
 16 34  1  0
 34 12  1  0
 34 35  1  1
 34 36  1  0
 36 37  1  0
 37 10  1  0
  8 38  1  0
 38 39  1  6
 39 40  1  0
 40 41  1  0
 40 42  2  0
 38 43  1  0
 43 44  1  1
 44 45  1  0
 45 46  1  0
 45 47  2  0
 43 48  1  0
 48  6  1  0
 48 49  1  6
 49 50  1  0
 50 51  1  0
 50 52  2  0
M  END
> <Smiles>
CC(=O)OC[C@H]1O[C@@H](O[C@@H]2C=C3CC[C@@H]4[C@H]([C@@H](O)C[C@]5(C)[C@@H](c6ccc(=O)oc6)CC[C@]45O)[C@@]3(C)CC2)[C@H](OC(C)=O)[C@@H](OC(C)=O)[C@@H]1OC(C)=O

> <ID>
CHEMBL4858816

> <standard_value>
77

> <IC50_uM>
0.077

> <Activity>
Yes

> <pIC50>
7.113509275

> <BCI>
1

$$$$

  SciTegic03012415362D

 30 33  0  0  0  0            999 V2000
    2.5951   -3.0031    0.0000 C   0  0
    2.5973   -1.5031    0.0000 O   0  0
    1.2990   -0.7500    0.0000 C   0  0
    1.2990    0.7500    0.0000 C   0  0
    0.0000    1.5000    0.0000 N   0  0
   -1.2990    0.7500    0.0000 C   0  0
   -1.2990   -0.7500    0.0000 C   0  0
    0.0000   -1.5000    0.0000 C   0  0
   -2.7248   -1.2135    0.0000 C   0  0
   -3.1882   -2.6402    0.0000 O   0  0
   -3.6065    0.0000    0.0000 C   0  0
   -2.7248    1.2135    0.0000 C   0  0
   -3.3339    2.5831    0.0000 N   0  0
   -2.4537    3.7988    0.0000 C   0  0
   -3.0656    5.1692    0.0000 C   0  0
   -2.1854    6.3848    0.0000 C   0  0
   -2.7972    7.7553    0.0000 N   0  0
   -1.9176    8.9703    0.0000 C   0  0
   -4.2892    7.9101    0.0000 C   0  0
   -4.8257    2.7399    0.0000 C   0  0
   -5.4358    4.1102    0.0000 O   0  0
   -5.7073    1.5263    0.0000 C   0  0
   -7.1991    1.6831    0.0000 C   0  0
   -8.0808    0.4696    0.0000 C   0  0
   -9.5737    0.6234    0.0000 N   0  3
  -10.4537   -0.5914    0.0000 O   0  0
  -10.1862    1.9927    0.0000 O   0  5
   -7.4707   -0.9007    0.0000 C   0  0
   -5.9789   -1.0575    0.0000 C   0  0
   -5.0972    0.1560    0.0000 C   0  0
  1  2  1  0
  2  3  1  0
  3  4  2  0
  4  5  1  0
  5  6  2  0
  6  7  1  0
  7  8  2  0
  8  3  1  0
  7  9  1  0
  9 10  2  0
  9 11  1  0
 11 12  2  0
 12  6  1  0
 12 13  1  0
 13 14  1  0
 14 15  1  0
 15 16  1  0
 16 17  1  0
 17 18  1  0
 17 19  1  0
 13 20  1  0
 20 21  2  0
 20 22  1  0
 22 23  2  0
 23 24  1  0
 24 25  1  0
 25 26  2  0
 25 27  1  0
 24 28  2  0
 28 29  1  0
 29 30  2  0
 30 11  1  0
 30 22  1  0
M  CHG  2  25   1  27  -1
M  END
> <Smiles>
COc1cnc2c(c1)C(=O)c1c-2n(CCCN(C)C)c(=O)c2cc([N+](=O)[O-])ccc12

> <ID>
CHEMBL2024287

> <standard_value>
78

> <IC50_uM>
0.078

> <Activity>
Yes

> <pIC50>
7.107905397

> <BCI>
1

$$$$

  SciTegic03012415362D

 35 38  0  0  0  0            999 V2000
    3.8983   -0.7459    0.0000 C   0  0
    2.6003   -1.4977    0.0000 O   0  0
    1.2990   -0.7500    0.0000 C   0  0
    1.2990    0.7500    0.0000 C   0  0
    0.0000    1.5000    0.0000 C   0  0
   -1.2990    0.7500    0.0000 C   0  0
   -1.2990   -0.7500    0.0000 C   0  0
    0.0000   -1.5000    0.0000 C   0  0
   -0.0031   -3.0008    0.0000 O   0  0
   -1.3032   -3.7490    0.0000 C   0  0
   -2.4133    1.7530    0.0000 C   0  0
   -1.8032    3.1233    0.0000 C   0  0
   -2.6838    4.3363    0.0000 C   0  0
   -2.0737    5.7066    0.0000 C   0  0
   -2.9554    6.9201    0.0000 C   0  0
   -2.3421    8.2900    0.0000 O   0  0
   -0.8501    8.4446    0.0000 C   0  0
   -4.4472    6.7633    0.0000 C   0  0
   -5.3318    7.9757    0.0000 O   0  0
   -6.8234    7.8168    0.0000 C   0  0
   -5.0572    5.3930    0.0000 C   0  0
   -4.1756    4.1795    0.0000 C   0  0
   -4.7857    2.8092    0.0000 C   0  0
   -6.2774    2.6524    0.0000 O   0  0
   -3.9040    1.5956    0.0000 N   0  0
   -4.5167    0.2256    0.0000 C   0  0
   -6.0094    0.0702    0.0000 C   0  0
   -6.6221   -1.2999    0.0000 C   0  0
   -8.1149   -1.4552    0.0000 N   0  0
   -8.7276   -2.8253    0.0000 C   0  0
  -10.2203   -2.9807    0.0000 C   0  0
  -10.8330   -4.3507    0.0000 C   0  0
  -12.3250   -4.5060    0.0000 O   0  0
   -0.3115    2.9665    0.0000 C   0  0
    0.6923    4.0811    0.0000 O   0  0
  1  2  1  0
  2  3  1  0
  3  4  2  0
  4  5  1  0
  5  6  2  0
  6  7  1  0
  7  8  2  0
  8  3  1  0
  8  9  1  0
  9 10  1  0
  6 11  1  0
 11 12  2  0
 12 13  1  0
 13 14  2  0
 14 15  1  0
 15 16  1  0
 16 17  1  0
 15 18  2  0
 18 19  1  0
 19 20  1  0
 18 21  1  0
 21 22  2  0
 22 13  1  0
 22 23  1  0
 23 24  2  0
 23 25  1  0
 25 11  1  0
 25 26  1  0
 26 27  1  0
 27 28  1  0
 28 29  1  0
 29 30  1  0
 30 31  1  0
 31 32  1  0
 32 33  1  0
 12 34  1  0
 34  5  1  0
 34 35  2  0
M  END
> <Smiles>
COc1cc2c(cc1OC)-c1c(c3cc(OC)c(OC)cc3c(=O)n1CCCNCCCO)C2=O

> <ID>
CHEMBL121577

> <standard_value>
80

> <IC50_uM>
0.08

> <Activity>
Yes

> <pIC50>
7.096910013

> <BCI>
1

$$$$

  SciTegic03012415362D

 22 25  0  0  0  0            999 V2000
    2.5981   -1.5000    0.0000 O   0  0
    1.2990   -0.7500    0.0000 C   0  0
    1.2990    0.7500    0.0000 N   0  0
    0.0000    1.5000    0.0000 C   0  0  3  0  0  0
   -1.2990    0.7500    0.0000 C   0  0  3  0  0  0
   -2.5981    1.5000    0.0000 C   0  0
   -2.5981    3.0000    0.0000 C   0  0  3  0  0  0
   -3.8971    3.7500    0.0000 O   0  0
   -1.2991    3.7500    0.0000 C   0  0  3  0  0  0
   -1.2991    5.2500    0.0000 O   0  0
    0.0000    3.0000    0.0000 C   0  0  3  0  0  0
    1.2990    3.7500    0.0000 O   0  0
   -1.2990   -0.7500    0.0000 C   0  0
   -2.5981   -1.5000    0.0000 C   0  0
   -2.5981   -3.0000    0.0000 C   0  0
   -1.2990   -3.7500    0.0000 C   0  0
    0.0000   -3.0000    0.0000 C   0  0
    1.2991   -3.7500    0.0000 O   0  0
    0.0000   -1.5000    0.0000 C   0  0
   -1.6105   -5.2165    0.0000 O   0  0
   -3.1022   -5.3733    0.0000 C   0  0
   -3.7124   -4.0030    0.0000 O   0  0
  1  2  2  0
  2  3  1  0
  4  3  1  4
  4  5  1  0
  5  6  1  4
  6  7  1  0
  7  8  1  4
  7  9  1  0
  9 10  1  4
  9 11  1  0
 11  4  1  0
 11 12  1  4
  5 13  1  0
 13 14  2  0
 14 15  1  0
 15 16  2  0
 16 17  1  0
 17 18  1  0
 17 19  2  0
 19 13  1  0
 19  2  1  0
 16 20  1  0
 20 21  1  0
 21 22  1  0
 22 15  1  0
M  END
> <Smiles>
O=C1NC2C(CC(O)C(O)C2O)c2cc3c(c(O)c21)OCO3

> <ID>
CHEMBL1987575

> <standard_value>
81.9

> <IC50_uM>
0.0819

> <Activity>
Yes

> <pIC50>
7.086716098

> <BCI>
1

$$$$

  SciTegic03012415362D

 32 34  0  0  0  0            999 V2000
    1.2443   -5.8182    0.0000 C   0  0
   -0.2234   -5.5086    0.0000 C   0  0  3  0  0  0
   -0.6890   -4.0818    0.0000 C   0  0
    0.3114   -2.9665    0.0000 C   0  0
    1.8032   -3.1233    0.0000 C   0  0
    2.4133   -1.7530    0.0000 O   0  0
    1.2990   -0.7500    0.0000 C   0  0
    1.2990    0.7500    0.0000 N   0  0
    0.0000    1.5000    0.0000 C   0  0
    0.0000    3.0000    0.0000 N   0  0
   -1.2990    0.7500    0.0000 C   0  0
   -1.2990   -0.7500    0.0000 C   0  0
   -2.5981   -1.5000    0.0000 N   0  0
    0.0000   -1.5000    0.0000 C   0  0
   -1.2256   -6.6258    0.0000 C   0  0
   -0.7624   -8.0525    0.0000 C   0  0
   -1.7662   -9.1671    0.0000 C   0  0
   -3.2334   -8.8550    0.0000 C   0  0
   -4.2401   -9.9681    0.0000 C   0  0
   -3.7793  -11.3955    0.0000 O   0  0
   -5.7077   -9.6537    0.0000 N   0  0
   -6.7144  -10.7668    0.0000 C   0  0  3  0  0  0
   -8.1819  -10.4525    0.0000 C   0  0
   -9.1886  -11.5656    0.0000 C   0  0
  -10.6562  -11.2512    0.0000 C   0  0
  -11.6623  -12.3637    0.0000 O   0  0
  -11.1170   -9.8237    0.0000 O   0  0
   -6.2562  -12.1960    0.0000 C   0  0
   -7.2636  -13.3074    0.0000 O   0  0
   -4.7902  -12.5132    0.0000 O   0  0
   -3.6967   -7.4283    0.0000 C   0  0
   -2.6928   -6.3138    0.0000 C   0  0
  2  1  1  4
  2  3  1  0
  3  4  1  0
  4  5  2  0
  5  6  1  0
  6  7  1  0
  7  8  2  0
  8  9  1  0
  9 10  1  0
  9 11  2  0
 11 12  1  0
 12 13  1  0
 12 14  2  0
 14  4  1  0
 14  7  1  0
  2 15  1  0
 15 16  2  0
 16 17  1  0
 17 18  2  0
 18 19  1  0
 19 20  2  0
 19 21  1  0
 22 21  1  4
 22 23  1  0
 23 24  1  0
 24 25  1  0
 25 26  2  0
 25 27  1  0
 22 28  1  0
 28 29  2  0
 28 30  1  0
 18 31  1  0
 31 32  2  0
 32 15  1  0
M  END
> <Smiles>
CC(Cc1coc2nc(N)cc(N)c12)c1ccc(C(=O)NC(CCC(=O)O)C(=O)O)cc1

> <ID>
CHEMBL60639

> <standard_value>
87.8

> <IC50_uM>
0.0878

> <Activity>
Yes

> <pIC50>
7.056505484

> <BCI>
1

$$$$

  SciTegic03012415362D

 46 54  0  0  1  0            999 V2000
    4.1900   -1.3600    0.0000 C   0  0
    2.6900   -1.3600    0.0000 C   0  0  1  0  0  0
    1.8400   -2.8200    0.0000 C   0  0  1  0  0  0
    2.5900   -4.1179    0.0000 O   0  0
    4.0908   -4.1184    0.0000 C   0  0  1  0  0  0
    4.8431   -5.4161    0.0000 C   0  0
    6.3431   -5.4135    0.0000 C   0  0
    7.0909   -4.1131    0.0000 C   0  0  2  0  0  0
    8.5917   -4.1136    0.0000 O   0  0
    9.3425   -5.4131    0.0000 C   0  0  1  0  0  0
    8.4849   -6.8605    0.0000 O   0  0
    9.3242   -8.3209    0.0000 C   0  0  2  0  0  0
    8.7106   -9.3753    0.0000 O   0  0
    9.0263  -10.5425    0.0000 C   0  0  1  0  0  0
   10.2168   -9.6300    0.0000 C   0  0
   10.0721  -11.1512    0.0000 C   0  0
   11.2429  -10.8491    0.0000 C   0  0
   11.8566   -9.7947    0.0000 C   0  0  1  0  0  0
   13.5410   -9.8030    0.0000 C   0  0  2  0  0  0
   14.2855  -11.1052    0.0000 C   0  0
   14.3910   -8.3424    0.0000 C   0  0
   13.5567   -6.8734    0.0000 C   0  0
   11.8587   -6.8686    0.0000 C   0  0  1  0  0  0
   11.0243   -5.3996    0.0000 C   0  0  1  0  0  0
   11.7737   -4.1002    0.0000 C   0  0
   11.0086   -8.3293    0.0000 C   0  0  1  0  0  0
   10.8546   -9.7669    0.0000 O   0  0
    9.9201  -10.2991    0.0000 O   0  0
    6.3386   -2.8154    0.0000 C   0  0
    4.8386   -2.8180    0.0000 C   0  0
    0.1500   -2.8200    0.0000 O   0  0
   -0.6900   -1.3600    0.0000 C   0  0  2  0  0  0
   -1.9100   -1.3600    0.0000 O   0  0
   -2.7600   -0.5000    0.0000 C   0  0  1  0  0  0
   -1.3725    0.0700    0.0000 C   0  0
   -2.7600    0.7100    0.0000 C   0  0
   -1.9100    1.5700    0.0000 C   0  0
   -0.6900    1.5700    0.0000 C   0  0  1  0  0  0
    0.1500    3.0300    0.0000 C   0  0  2  0  0  0
   -0.6010    4.3285    0.0000 C   0  0
    1.8400    3.0300    0.0000 C   0  0
    2.6900    1.5700    0.0000 C   0  0
    1.8400    0.1000    0.0000 C   0  0  2  0  0  0
    0.1500    0.1000    0.0000 C   0  0  1  0  0  0
   -1.1700    0.6900    0.0000 O   0  0
   -2.1000    0.1500    0.0000 O   0  0
  2  1  1  1
  2  3  1  0
  3  4  1  1
  5  4  1  6
  5  6  1  0
  6  7  1  0
  7  8  1  0
  8  9  1  1
 10  9  1  6
 10 11  1  0
 12 11  1  1
 12 13  1  0
 13 14  1  0
 14 15  1  1
 14 16  1  0
 16 17  1  0
 18 17  1  6
 18 19  1  0
 19 20  1  1
 19 21  1  0
 21 22  1  0
 23 22  1  6
 23 24  1  0
 24 10  1  0
 24 25  1  6
 23 26  1  0
 26 12  1  0
 26 18  1  0
 26 27  1  1
 27 28  1  0
 28 14  1  0
  8 29  1  0
 29 30  1  0
 30  5  1  0
  3 31  1  0
 32 31  1  6
 32 33  1  0
 33 34  1  0
 34 35  1  6
 34 36  1  0
 36 37  1  0
 38 37  1  1
 38 39  1  0
 39 40  1  6
 39 41  1  0
 41 42  1  0
 43 42  1  1
 43  2  1  0
 43 44  1  0
 44 32  1  0
 44 38  1  0
 44 45  1  6
 45 46  1  0
 46 34  1  0
M  END
> <Smiles>
C[C@H]1[C@@H](O[C@H]2CC[C@H](O[C@H]3O[C@@H]4O[C@@]5(C)CC[C@H]6[C@H](C)CC[C@@H]([C@H]3C)[C@@]46OO5)CC2)O[C@@H]2O[C@@]3(C)CC[C@H]4[C@H](C)CC[C@@H]1[C@@]24OO3

> <ID>
CHEMBL449452

> <standard_value>
92

> <IC50_uM>
0.092

> <Activity>
Yes

> <pIC50>
7.036212173

> <BCI>
1

$$$$

  SciTegic03012415362D

 31 35  0  0  0  0            999 V2000
    3.8805   -1.4410    0.0000 O   0  0
    2.4133   -1.7530    0.0000 C   0  0
    1.2990   -0.7500    0.0000 C   0  0
    1.2990    0.7500    0.0000 C   0  0
    0.0000    1.5000    0.0000 C   0  0
   -1.2990    0.7500    0.0000 C   0  0
   -1.2990   -0.7500    0.0000 C   0  0
    0.0000   -1.5000    0.0000 C   0  0
    0.3114   -2.9665    0.0000 C   0  0
    1.8032   -3.1233    0.0000 C   0  0
    2.4135   -4.4923    0.0000 C   0  0
    3.9053   -4.6492    0.0000 C   0  0
    4.5154   -6.0195    0.0000 C   0  0
    3.6337   -7.2330    0.0000 C   0  0
    4.2413   -8.6053    0.0000 N   0  3
    3.3579   -9.8176    0.0000 O   0  0
    5.7328   -8.7647    0.0000 O   0  5
    2.1419   -7.0762    0.0000 C   0  0
    1.5318   -5.7059    0.0000 C   0  0
    0.0400   -5.5491    0.0000 C   0  0
   -0.8417   -6.7626    0.0000 O   0  0
   -0.5701   -4.1788    0.0000 N   0  0
   -2.0630   -4.0243    0.0000 C   0  0
   -2.9439   -5.2394    0.0000 C   0  0
   -4.4368   -5.0850    0.0000 C   0  0
   -5.3177   -6.3001    0.0000 N   0  0
   -6.8100   -6.1479    0.0000 C   0  0
   -7.6880   -7.3642    0.0000 C   0  0
   -7.0737   -8.7326    0.0000 O   0  0
   -5.5814   -8.8849    0.0000 C   0  0
   -4.7034   -7.6686    0.0000 C   0  0
  1  2  2  0
  2  3  1  0
  3  4  2  0
  4  5  1  0
  5  6  2  0
  6  7  1  0
  7  8  2  0
  8  3  1  0
  8  9  1  0
  9 10  2  0
 10  2  1  0
 10 11  1  0
 11 12  2  0
 12 13  1  0
 13 14  2  0
 14 15  1  0
 15 16  2  0
 15 17  1  0
 14 18  1  0
 18 19  2  0
 19 11  1  0
 19 20  1  0
 20 21  2  0
 20 22  1  0
 22  9  1  0
 22 23  1  0
 23 24  1  0
 24 25  1  0
 25 26  1  0
 26 27  1  0
 27 28  1  0
 28 29  1  0
 29 30  1  0
 30 31  1  0
 31 26  1  0
M  CHG  2  15   1  17  -1
M  END
> <Smiles>
O=C1c2ccccc2-c2c1c1ccc([N+](=O)[O-])cc1c(=O)n2CCCN1CCOCC1

> <ID>
CHEMBL230213

> <standard_value>
95

> <IC50_uM>
0.095

> <Activity>
Yes

> <pIC50>
7.022276395

> <BCI>
1

$$$$

  SciTegic03012415362D

 34 37  0  0  0  0            999 V2000
    2.6531  -10.0886    0.0000 C   0  0
    1.1844   -9.7837    0.0000 O   0  0
    0.7130   -8.3588    0.0000 C   0  0
   -0.7552   -8.0517    0.0000 C   0  0
   -1.2234   -6.6267    0.0000 C   0  0
   -0.2234   -5.5086    0.0000 C   0  0
   -0.6890   -4.0818    0.0000 C   0  0
    0.3114   -2.9665    0.0000 N   0  0
    1.8032   -3.1233    0.0000 C   0  0
    2.4133   -1.7530    0.0000 C   0  0
    3.8794   -1.4442    0.0000 C   0  0
    4.8823   -2.5608    0.0000 C   0  0
    6.3509   -2.2515    0.0000 C   0  0
    7.3549   -3.3660    0.0000 C   0  0
    8.8220   -3.0539    0.0000 C   0  0
    9.8242   -4.1711    0.0000 O   0  0
    9.3589   -5.5971    0.0000 C   0  0
    9.2853   -1.6272    0.0000 C   0  0
   10.7527   -1.3119    0.0000 O   0  0
   11.2139    0.1154    0.0000 C   0  0
    8.2815   -0.5127    0.0000 C   0  0
    8.7421    0.9157    0.0000 O   0  0
    7.7366    2.0289    0.0000 C   0  0
    6.8143   -0.8248    0.0000 C   0  0
    1.2990   -0.7500    0.0000 C   0  0
    1.2990    0.7500    0.0000 C   0  0
    2.5981    1.5000    0.0000 C   0  0
    0.0000    1.5000    0.0000 N   0  0
   -1.2990    0.7500    0.0000 C   0  0
   -2.5981    1.5000    0.0000 N   0  0
   -1.2990   -0.7500    0.0000 N   0  0
    0.0000   -1.5000    0.0000 C   0  0
    1.2449   -5.8157    0.0000 C   0  0
    1.7131   -7.2408    0.0000 C   0  0
  1  2  1  0
  2  3  1  0
  3  4  2  0
  4  5  1  0
  5  6  2  0
  6  7  1  0
  7  8  1  0
  8  9  1  0
  9 10  2  0
 10 11  1  0
 11 12  1  0
 12 13  1  0
 13 14  2  0
 14 15  1  0
 15 16  1  0
 16 17  1  0
 15 18  2  0
 18 19  1  0
 19 20  1  0
 18 21  1  0
 21 22  1  0
 22 23  1  0
 21 24  2  0
 24 13  1  0
 10 25  1  0
 25 26  2  0
 26 27  1  0
 26 28  1  0
 28 29  2  0
 29 30  1  0
 29 31  1  0
 31 32  2  0
 32 25  1  0
 32  8  1  0
  6 33  1  0
 33 34  2  0
 34  3  1  0
M  END
> <Smiles>
COc1ccc(Cn2cc(CCc3cc(OC)c(OC)c(OC)c3)c3c(C)nc(N)nc32)cc1

> <ID>
CHEMBL2332264

> <standard_value>
96.4

> <IC50_uM>
0.0964

> <Activity>
Yes

> <pIC50>
7.015922966

> <BCI>
1

$$$$

  SciTegic03012415362D

 29 31  0  0  0  0            999 V2000
  -13.6662  -14.5941    0.0000 C   0  0
  -12.1995  -14.9083    0.0000 C   0  0
  -11.1928  -13.7952    0.0000 C   0  0
   -9.7252  -14.1096    0.0000 N   0  0
   -8.7185  -12.9965    0.0000 N   0  0
   -7.2510  -13.3108    0.0000 C   0  0
   -6.7902  -14.7383    0.0000 O   0  0
   -6.2443  -12.1977    0.0000 C   0  0
   -4.7767  -12.5121    0.0000 C   0  0
   -3.7700  -11.3990    0.0000 C   0  0
   -2.3028  -11.7111    0.0000 C   0  0
   -1.2990  -10.5965    0.0000 C   0  0
   -1.7622   -9.1698    0.0000 C   0  0
   -0.7600   -8.0526    0.0000 C   0  0
   -1.2256   -6.6258    0.0000 N   0  0
   -0.2234   -5.5086    0.0000 C   0  0
   -0.6890   -4.0818    0.0000 C   0  0
    0.3114   -2.9665    0.0000 C   0  0
    1.8032   -3.1233    0.0000 C   0  0
    2.5532   -4.4223    0.0000 C   0  0
    2.4133   -1.7530    0.0000 N   0  0
    1.2990   -0.7500    0.0000 C   0  0
    1.2990    0.7500    0.0000 C   0  0
    0.0000    1.5000    0.0000 C   0  0
   -1.2990    0.7500    0.0000 C   0  0
   -1.2990   -0.7500    0.0000 C   0  0
    0.0000   -1.5000    0.0000 C   0  0
   -3.2294   -8.8578    0.0000 C   0  0
   -4.2333   -9.9723    0.0000 C   0  0
  1  2  1  0
  2  3  1  0
  3  4  1  0
  4  5  1  0
  5  6  1  0
  6  7  2  0
  6  8  1  0
  8  9  2  0
  9 10  1  0
 10 11  2  0
 11 12  1  0
 12 13  2  0
 13 14  1  0
 14 15  1  0
 15 16  1  0
 16 17  1  0
 17 18  1  0
 18 19  2  0
 19 20  1  0
 19 21  1  0
 21 22  1  0
 22 23  2  0
 23 24  1  0
 24 25  2  0
 25 26  1  0
 26 27  2  0
 27 18  1  0
 27 22  1  0
 13 28  1  0
 28 29  2  0
 29 10  1  0
M  END
> <Smiles>
CCCNNC(=O)/C=C/c1ccc(CNCCc2c(C)[nH]c3ccccc23)cc1.O=C(O)C(F)(F)F

> <ID>
CHEMBL4444219

> <standard_value>
98.9

> <IC50_uM>
0.0989

> <Activity>
Yes

> <pIC50>
7.004803708

> <BCI>
1

> <RemovedSalts>
OC(=O)C(F)(F)F

$$$$

  SciTegic03012415362D

 36 41  0  0  0  0            999 V2000
    3.8983   -0.7459    0.0000 C   0  0
    2.6003   -1.4977    0.0000 O   0  0
    1.2990   -0.7500    0.0000 C   0  0
    1.2990    0.7500    0.0000 C   0  0
    0.0000    1.5000    0.0000 C   0  0
    0.0000    3.0000    0.0000 C   0  0
   -1.2991    3.7500    0.0000 C   0  0
   -2.5981    3.0000    0.0000 N   0  0
   -3.8994    3.7477    0.0000 C   0  0
   -5.1981    2.9954    0.0000 C   0  0
   -6.4994    3.7432    0.0000 C   0  0
   -7.7981    2.9909    0.0000 N   0  0
   -9.0998    3.7363    0.0000 C   0  0
  -10.3962    2.9818    0.0000 C   0  0
  -10.3910    1.4818    0.0000 C   0  0
  -11.6874    0.7273    0.0000 N   0  0
   -9.0894    0.7363    0.0000 C   0  0
   -7.7929    1.4908    0.0000 C   0  0
   -2.5981    1.5000    0.0000 C   0  0
   -3.8971    0.7500    0.0000 O   0  0
   -1.2990    0.7500    0.0000 C   0  0
   -1.2990   -0.7500    0.0000 C   0  0
    0.0000   -1.5000    0.0000 C   0  0
   -0.0031   -3.0008    0.0000 O   0  0
   -1.3032   -3.7490    0.0000 C   0  0
   -0.9876    5.2165    0.0000 C   0  0
   -1.8692    6.4288    0.0000 C   0  0
   -1.2591    7.7991    0.0000 C   0  0
    0.2327    7.9559    0.0000 C   0  0
    1.1144    6.7424    0.0000 C   0  0
    0.5042    5.3733    0.0000 C   0  0
    1.1143    4.0030    0.0000 C   0  0
    2.5815    3.6910    0.0000 O   0  0
    0.5446    9.4223    0.0000 O   0  0
   -0.7544   10.1723    0.0000 C   0  0
   -1.8691    9.1686    0.0000 O   0  0
  1  2  1  0
  2  3  1  0
  3  4  2  0
  4  5  1  0
  5  6  1  0
  6  7  2  0
  7  8  1  0
  8  9  1  0
  9 10  1  0
 10 11  1  0
 11 12  1  0
 12 13  1  0
 13 14  1  0
 14 15  1  0
 15 16  1  0
 15 17  1  0
 17 18  1  0
 18 12  1  0
  8 19  1  0
 19 20  2  0
 19 21  1  0
 21  5  2  0
 21 22  1  0
 22 23  2  0
 23  3  1  0
 23 24  1  0
 24 25  1  0
  7 26  1  0
 26 27  2  0
 27 28  1  0
 28 29  2  0
 29 30  1  0
 30 31  2  0
 31 26  1  0
 31 32  1  0
 32  6  1  0
 32 33  2  0
 29 34  1  0
 34 35  1  0
 35 36  1  0
 36 28  1  0
M  END
> <Smiles>
COc1cc2c3c(n(CCCN4CCC(N)CC4)c(=O)c2cc1OC)-c1cc2c(cc1C3=O)OCO2.Cl.Cl

> <ID>
CHEMBL3216203

> <standard_value>
100

> <IC50_uM>
0.1

> <Activity>
Yes

> <pIC50>
7

> <BCI>
1

> <RemovedSalts>
HCl
HCl

$$$$

  SciTegic03012415362D

 33 32  0  0  0  0            999 V2000
    0.0000    0.0000    0.0000 C   0  0
   -0.8660    0.5000    0.0000 C   0  0
   -1.7321    0.0000    0.0000 C   0  0
   -2.5981    0.5000    0.0000 C   0  0
   -3.4641    0.0000    0.0000 C   0  0
   -4.3301    0.5000    0.0000 C   0  0
   -5.1962    0.0000    0.0000 C   0  0
   -6.0622    0.5000    0.0000 C   0  0
   -6.9282    0.0000    0.0000 C   0  0
   -7.7942    0.5000    0.0000 C   0  0
   -8.6603    0.0000    0.0000 C   0  0
   -9.5263    0.5000    0.0000 C   0  0
  -10.3923    0.0000    0.0000 C   0  0
  -11.2583    0.5000    0.0000 C   0  0
  -12.1244    0.0000    0.0000 C   0  0
  -12.9904    0.5000    0.0000 C   0  0
  -13.8564    0.0000    0.0000 C   0  0
  -14.7224    0.5000    0.0000 C   0  0
  -15.5885    0.0000    0.0000 P   0  0
  -16.4545    0.5000    0.0000 C   0  0
  -17.3205    0.0000    0.0000 C   0  0
  -18.1865    0.5000    0.0000 C   0  0
  -19.0526    0.0000    0.0000 C   0  0
  -19.9186    0.5000    0.0000 C   0  0
  -20.7846    0.0000    0.0000 C   0  0
  -21.6506    0.5000    0.0000 C   0  0
  -22.5167   -0.0001    0.0000 C   0  0
  -23.3827    0.4999    0.0000 C   0  0
  -24.2487   -0.0001    0.0000 C   0  0
  -25.1147    0.4999    0.0000 C   0  0
  -25.9808   -0.0001    0.0000 C   0  0
  -26.8468    0.4999    0.0000 C   0  0
  -27.7128   -0.0001    0.0000 C   0  0
  1  2  1  0
  2  3  1  0
  3  4  1  0
  4  5  1  0
  5  6  1  0
  6  7  1  0
  7  8  1  0
  8  9  1  0
  9 10  1  0
 10 11  1  0
 11 12  1  0
 12 13  1  0
 13 14  1  0
 14 15  1  0
 15 16  1  0
 16 17  1  0
 17 18  1  0
 18 19  1  0
 19 20  1  0
 20 21  1  0
 21 22  1  0
 22 23  1  0
 23 24  1  0
 24 25  1  0
 25 26  1  0
 26 27  1  0
 27 28  1  0
 28 29  1  0
 29 30  1  0
 30 31  1  0
 31 32  1  0
 32 33  1  0
M  END
> <Smiles>
CCCCCCCCCCCCCCCCCCPCCCCCCCCCCCCCC.F[PH](F)(F)(F)(F)F

> <ID>
CHEMBL4298696

> <standard_value>
100

> <IC50_uM>
0.1

> <Activity>
Yes

> <pIC50>
7

> <BCI>
1

> <RemovedSalts>
PF6

$$$$

  SciTegic03012415362D

 33 37  0  0  1  0            999 V2000
    3.8983   -0.7459    0.0000 C   0  0
    2.6003   -1.4977    0.0000 O   0  0
    1.2990   -0.7500    0.0000 C   0  0
    1.2990    0.7500    0.0000 C   0  0
    0.0000    1.5000    0.0000 C   0  0
   -0.0031    3.0008    0.0000 C   0  0
   -1.3039    3.7494    0.0000 C   0  0
   -1.3070    5.2502    0.0000 C   0  0
   -2.6061    6.0003    0.0000 C   0  0
   -2.6061    7.5003    0.0000 C   0  0
   -3.9052    8.2502    0.0000 O   0  0
   -1.3071    8.2503    0.0000 C   0  0
   -0.9957    9.7168    0.0000 C   0  0
    0.4961    9.8736    0.0000 C   0  0
    1.1062    8.5033    0.0000 N   0  0
    2.5734    8.1914    0.0000 C   0  0
   -0.0080    7.5003    0.0000 C   0  0
   -0.0080    6.0003    0.0000 C   0  0
   -1.2990    0.7500    0.0000 C   0  0
   -1.2990   -0.7500    0.0000 C   0  0
    0.0000   -1.5000    0.0000 C   0  0
    0.0000   -3.0000    0.0000 O   0  0
   -1.2990   -3.7500    0.0000 C   0  0  2  0  0  0
    0.0000   -4.5000    0.0000 C   0  0
   -1.2990   -5.2500    0.0000 C   0  0
   -2.5981   -6.0000    0.0000 C   0  0
   -3.8971   -5.2500    0.0000 C   0  0  1  0  0  0
   -5.1961   -6.0000    0.0000 O   0  0
   -3.8971   -3.7500    0.0000 C   0  0
   -3.8617   -2.2504    0.0000 C   0  0
   -5.1782   -4.5303    0.0000 C   0  0
   -2.5981   -3.0000    0.0000 C   0  0  1  0  0  0
   -2.5981   -1.5000    0.0000 C   0  0
  1  2  1  0
  2  3  1  0
  3  4  2  0
  4  5  1  0
  5  6  1  0
  6  7  2  0
  7  8  1  0
  8  9  2  0
  9 10  1  0
 10 11  1  0
 10 12  2  0
 12 13  1  0
 13 14  2  0
 14 15  1  0
 15 16  1  0
 15 17  1  0
 17 12  1  0
 17 18  2  0
 18  8  1  0
  5 19  2  0
 19 20  1  0
 20 21  2  0
 21  3  1  0
 21 22  1  0
 22 23  1  0
 23 24  1  1
 23 25  1  0
 25 26  1  0
 26 27  1  0
 27 28  1  1
 27 29  1  0
 29 30  1  0
 29 31  1  0
 29 32  1  0
 32 23  1  0
 32 33  1  1
 33 20  1  0
M  END
> <Smiles>
COc1cc(/C=C/c2cc(O)c3ccn(C)c3c2)cc2c1O[C@]1(C)CC[C@@H](O)C(C)(C)[C@H]1C2

> <ID>
CHEMBL3233616

> <standard_value>
104.71

> <IC50_uM>
0.10471

> <Activity>
Yes

> <pIC50>
6.98001184

> <BCI>
1

$$$$

  SciTegic03012415362D

 21 23  0  0  0  0            999 V2000
    2.5951   -3.0031    0.0000 C   0  0
    2.5973   -1.5031    0.0000 O   0  0
    1.2990   -0.7500    0.0000 C   0  0
    1.2990    0.7500    0.0000 C   0  0
    0.0000    1.5000    0.0000 C   0  0
   -1.2990    0.7500    0.0000 C   0  0
   -2.6003    1.4977    0.0000 N   0  0
   -3.8990    0.7455    0.0000 C   0  0
   -5.2526    1.3618    0.0000 N   0  0
   -6.2524    0.2436    0.0000 C   0  0
   -7.7454    0.3952    0.0000 C   0  0
   -8.5257   -0.8879    0.0000 C   0  0
  -10.0252   -0.8490    0.0000 C   0  0
  -10.7413    0.4691    0.0000 C   0  0
   -9.9579    1.7482    0.0000 C   0  0
   -8.4584    1.7093    0.0000 C   0  0
   -7.6746    2.9883    0.0000 F   0  0
   -5.4979   -1.0529    0.0000 N   0  0
   -4.0317   -0.7359    0.0000 O   0  0
   -1.2990   -0.7500    0.0000 C   0  0
    0.0000   -1.5000    0.0000 C   0  0
  1  2  1  0
  2  3  1  0
  3  4  2  0
  4  5  1  0
  5  6  2  0
  6  7  1  0
  7  8  1  0
  8  9  2  0
  9 10  1  0
 10 11  1  0
 11 12  2  0
 12 13  1  0
 13 14  2  0
 14 15  1  0
 15 16  2  0
 16 11  1  0
 16 17  1  0
 10 18  2  0
 18 19  1  0
 19  8  1  0
  6 20  1  0
 20 21  2  0
 21  3  1  0
M  END
> <Smiles>
COc1ccc(Nc2nc(-c3ccccc3F)no2)cc1

> <ID>
CHEMBL2331949

> <standard_value>
107.15

> <IC50_uM>
0.10715

> <Activity>
Yes

> <pIC50>
6.970007825

> <BCI>
1

$$$$

  SciTegic03012415362D

 21 23  0  0  0  0            999 V2000
    1.2948   -3.7516    0.0000 O   0  0
    2.5951   -3.0039    0.0000 C   0  0
    2.5973   -1.5031    0.0000 N   0  0
    1.2990   -0.7500    0.0000 C   0  0
    1.2990    0.7500    0.0000 C   0  0
    0.0000    1.5000    0.0000 C   0  0
   -1.2990    0.7500    0.0000 C   0  0
   -2.5987    1.5004    0.0000 C   0  0
   -2.6012    3.0004    0.0000 C   0  0
   -3.9015    3.7484    0.0000 C   0  0
   -5.1993    2.9963    0.0000 C   0  0
   -5.1969    1.4963    0.0000 C   0  0
   -3.8967    0.7484    0.0000 C   0  0
   -1.2990   -0.7500    0.0000 C   0  0
    0.0000   -1.5000    0.0000 N   0  0
    3.8933   -3.7570    0.0000 C   0  0
    3.8934   -5.2570    0.0000 C   0  0
    5.1924   -6.0070    0.0000 N   0  0
    6.4915   -5.2571    0.0000 C   0  0
    6.4915   -3.7571    0.0000 N   0  0
    5.1925   -3.0070    0.0000 C   0  0
  1  2  2  0
  2  3  1  0
  3  4  1  0
  4  5  2  0
  5  6  1  0
  6  7  2  0
  7  8  1  0
  8  9  2  0
  9 10  1  0
 10 11  2  0
 11 12  1  0
 12 13  2  0
 13  8  1  0
  7 14  1  0
 14 15  2  0
 15  4  1  0
  2 16  1  0
 16 17  2  0
 17 18  1  0
 18 19  2  0
 19 20  1  0
 20 21  2  0
 21 16  1  0
M  END
> <Smiles>
O=C(Nc1ccc(-c2ccccc2)cn1)c1cncnc1

> <ID>
CHEMBL4103670

> <standard_value>
110

> <IC50_uM>
0.11

> <Activity>
Yes

> <pIC50>
6.958607315

> <BCI>
1

$$$$

  SciTegic03012415362D

 28 31  0  0  0  0            999 V2000
    2.5951   -3.0031    0.0000 C   0  0
    2.5973   -1.5031    0.0000 O   0  0
    1.2990   -0.7500    0.0000 C   0  0
    1.2990    0.7500    0.0000 C   0  0
    0.0000    1.5000    0.0000 C   0  0
   -1.2990    0.7500    0.0000 C   0  0
   -1.2990   -0.7500    0.0000 C   0  0
    0.0000   -1.5000    0.0000 C   0  0
   -2.7248   -1.2135    0.0000 C   0  0
   -3.1882   -2.6402    0.0000 O   0  0
   -3.6065    0.0000    0.0000 C   0  0
   -2.7248    1.2135    0.0000 C   0  0
   -3.3339    2.5831    0.0000 N   0  0
   -2.4537    3.7988    0.0000 C   0  0
   -3.0656    5.1692    0.0000 C   0  0
   -2.1854    6.3848    0.0000 C   0  0
   -2.7972    7.7553    0.0000 N   0  0
   -1.9171    8.9709    0.0000 C   0  0
   -2.5289   10.3414    0.0000 C   0  0
   -1.6493   11.5564    0.0000 O   0  0
   -4.8257    2.7399    0.0000 C   0  0
   -5.4358    4.1102    0.0000 O   0  0
   -5.7073    1.5263    0.0000 C   0  0
   -7.1991    1.6831    0.0000 C   0  0
   -8.0808    0.4696    0.0000 C   0  0
   -7.4707   -0.9007    0.0000 C   0  0
   -5.9789   -1.0575    0.0000 C   0  0
   -5.0972    0.1560    0.0000 C   0  0
  1  2  1  0
  2  3  1  0
  3  4  2  0
  4  5  1  0
  5  6  2  0
  6  7  1  0
  7  8  2  0
  8  3  1  0
  7  9  1  0
  9 10  2  0
  9 11  1  0
 11 12  2  0
 12  6  1  0
 12 13  1  0
 13 14  1  0
 14 15  1  0
 15 16  1  0
 16 17  1  0
 17 18  1  0
 18 19  1  0
 19 20  1  0
 13 21  1  0
 21 22  2  0
 21 23  1  0
 23 24  2  0
 24 25  1  0
 25 26  2  0
 26 27  1  0
 27 28  2  0
 28 11  1  0
 28 23  1  0
M  END
> <Smiles>
COc1ccc2c(c1)C(=O)c1c-2n(CCCNCCO)c(=O)c2ccccc12

> <ID>
CHEMBL230742

> <standard_value>
112

> <IC50_uM>
0.112

> <Activity>
Yes

> <pIC50>
6.950781977

> <BCI>
1

$$$$

  SciTegic03012415362D

 29 32  0  0  0  0            999 V2000
    2.5951   -3.0031    0.0000 C   0  0
    2.5973   -1.5031    0.0000 O   0  0
    1.2990   -0.7500    0.0000 C   0  0
    1.2990    0.7500    0.0000 C   0  0
    0.0000    1.5000    0.0000 C   0  0
   -1.2990    0.7500    0.0000 C   0  0
   -1.2990   -0.7500    0.0000 C   0  0
    0.0000   -1.5000    0.0000 C   0  0
   -2.7248   -1.2135    0.0000 C   0  0
   -3.1882   -2.6402    0.0000 O   0  0
   -3.6065    0.0000    0.0000 C   0  0
   -2.7248    1.2135    0.0000 C   0  0
   -3.3339    2.5831    0.0000 N   0  0
   -2.4537    3.7988    0.0000 C   0  0
   -3.0656    5.1692    0.0000 C   0  0
   -2.1854    6.3848    0.0000 C   0  0
   -2.7969    7.7545    0.0000 N   0  0
   -4.8257    2.7399    0.0000 C   0  0
   -5.4358    4.1102    0.0000 O   0  0
   -5.7073    1.5263    0.0000 C   0  0
   -7.1991    1.6831    0.0000 C   0  0
   -8.0808    0.4696    0.0000 C   0  0
   -9.5731    0.6295    0.0000 O   0  0
  -10.1812    2.0007    0.0000 C   0  0
   -7.4707   -0.9007    0.0000 C   0  0
   -8.3503   -2.1167    0.0000 O   0  0
   -7.7383   -3.4862    0.0000 C   0  0
   -5.9789   -1.0575    0.0000 C   0  0
   -5.0972    0.1560    0.0000 C   0  0
  1  2  1  0
  2  3  1  0
  3  4  2  0
  4  5  1  0
  5  6  2  0
  6  7  1  0
  7  8  2  0
  8  3  1  0
  7  9  1  0
  9 10  2  0
  9 11  1  0
 11 12  2  0
 12  6  1  0
 12 13  1  0
 13 14  1  0
 14 15  1  0
 15 16  1  0
 16 17  1  0
 13 18  1  0
 18 19  2  0
 18 20  1  0
 20 21  2  0
 21 22  1  0
 22 23  1  0
 23 24  1  0
 22 25  2  0
 25 26  1  0
 26 27  1  0
 25 28  1  0
 28 29  2  0
 29 11  1  0
 29 20  1  0
M  END
> <Smiles>
COc1ccc2c(c1)C(=O)c1c-2n(CCCN)c(=O)c2cc(OC)c(OC)cc12

> <ID>
CHEMBL244547

> <standard_value>
115

> <IC50_uM>
0.115

> <Activity>
Yes

> <pIC50>
6.93930216

> <BCI>
1

$$$$

  SciTegic03012415362D

 28 31  0  0  0  0            999 V2000
    2.5951   -3.0031    0.0000 C   0  0
    2.5973   -1.5031    0.0000 O   0  0
    1.2990   -0.7500    0.0000 C   0  0
    1.2990    0.7500    0.0000 C   0  0
    0.0000    1.5000    0.0000 C   0  0
   -1.2990    0.7500    0.0000 C   0  0
   -2.7248    1.2135    0.0000 N   0  0
   -3.6065    0.0000    0.0000 C   0  0
   -5.1072    0.0000    0.0000 C   0  0
   -6.0557    1.1393    0.0000 C   0  0
   -7.4417    0.5656    0.0000 C   0  0
   -7.3243   -0.9298    0.0000 C   0  0
   -5.8659   -1.2803    0.0000 O   0  0
   -2.7248   -1.2135    0.0000 C   0  0
   -3.1884   -2.6409    0.0000 C   0  0
   -4.6234   -3.0602    0.0000 C   0  0
   -4.9781   -4.5176    0.0000 C   0  0
   -6.4193   -4.9365    0.0000 O   0  0
   -7.5027   -3.8990    0.0000 C   0  0
   -3.8933   -5.5536    0.0000 C   0  0
   -4.2452   -7.0125    0.0000 O   0  0
   -3.1588   -8.0469    0.0000 C   0  0
   -2.4537   -5.1320    0.0000 C   0  0
   -1.3661   -6.1662    0.0000 O   0  0
    0.0728   -5.7426    0.0000 C   0  0
   -2.0990   -3.6745    0.0000 C   0  0
   -1.2990   -0.7500    0.0000 C   0  0
    0.0000   -1.5000    0.0000 C   0  0
  1  2  1  0
  2  3  1  0
  3  4  2  0
  4  5  1  0
  5  6  2  0
  6  7  1  0
  7  8  1  0
  8  9  1  0
  9 10  2  0
 10 11  1  0
 11 12  2  0
 12 13  1  0
 13  9  1  0
  8 14  2  0
 14 15  1  0
 15 16  2  0
 16 17  1  0
 17 18  1  0
 18 19  1  0
 17 20  2  0
 20 21  1  0
 21 22  1  0
 20 23  1  0
 23 24  1  0
 24 25  1  0
 23 26  2  0
 26 15  1  0
 14 27  1  0
 27  6  1  0
 27 28  2  0
 28  3  1  0
M  END
> <Smiles>
COc1ccc2[nH]c(-c3ccco3)c(-c3cc(OC)c(OC)c(OC)c3)c2c1

> <ID>
CHEMBL73458

> <standard_value>
117.49

> <IC50_uM>
0.11749

> <Activity>
Yes

> <pIC50>
6.929999096

> <BCI>
1

$$$$

  SciTegic03012415362D

 64 70  0  0  1  0            999 V2000
    3.9075   -3.7444    0.0000 C   0  0
    2.6060   -2.9986    0.0000 O   0  0
    2.6003   -1.4977    0.0000 C   0  0  2  0  0  0
    3.8990   -0.7455    0.0000 C   0  0
    3.8964    0.7545    0.0000 O   0  0
    5.2003   -1.4932    0.0000 C   0  0
    5.2029   -2.9932    0.0000 C   0  0
    6.4983   -0.7414    0.0000 O   0  0
    1.2990   -0.7500    0.0000 C   0  0  2  0  0  0
    1.2990    0.7500    0.0000 C   0  0
    0.0000    1.5000    0.0000 C   0  0
    0.0000    3.0000    0.0000 C   0  0
   -1.2991    3.7500    0.0000 C   0  0
   -1.2991    5.2500    0.0000 C   0  0
   -2.5981    6.0000    0.0000 C   0  0
   -2.5951    7.5008    0.0000 O   0  0
   -1.2942    8.2494    0.0000 C   0  0  1  0  0  0
   -1.2890    9.7494    0.0000 C   0  0
    0.0126   10.4949    0.0000 C   0  0  1  0  0  0
    0.0147   11.9958    0.0000 O   0  0
   -1.2835   12.7488    0.0000 C   0  0  1  0  0  0
   -1.2836   14.2488    0.0000 C   0  0
   -2.5827   14.9988    0.0000 C   0  0  1  0  0  0
   -2.5827   16.4988    0.0000 O   0  0
   -3.8817   14.2488    0.0000 C   0  0  2  0  0  0
   -5.1807   14.9988    0.0000 O   0  0
   -3.8817   12.7488    0.0000 C   0  0  1  0  0  0
   -5.1807   11.9988    0.0000 C   0  0
   -2.5826   11.9988    0.0000 O   0  0
    1.3091    9.7405    0.0000 C   0  0  2  0  0  0
    2.6107   10.4860    0.0000 O   0  0
    1.3039    8.2405    0.0000 C   0  0  1  0  0  0
    2.6004    7.4860    0.0000 C   0  0
    0.0023    7.4949    0.0000 O   0  0
   -3.8972    5.2500    0.0000 C   0  0
   -5.1962    6.0000    0.0000 C   0  0
   -3.8971    3.7500    0.0000 C   0  0
   -5.1962    3.0000    0.0000 O   0  0
   -2.5981    3.0000    0.0000 C   0  0
   -2.5981    1.5000    0.0000 C   0  0
   -3.8971    0.7500    0.0000 O   0  0
   -1.2990    0.7500    0.0000 C   0  0
   -1.2990   -0.7500    0.0000 C   0  0
   -2.5981   -1.5000    0.0000 O   0  0
    0.0000   -1.5000    0.0000 C   0  0  1  0  0  0
   -0.0031   -3.0008    0.0000 O   0  0
   -1.3039   -3.7494    0.0000 C   0  0  1  0  0  0
   -1.3092   -5.2494    0.0000 C   0  0
   -2.6108   -5.9949    0.0000 C   0  0  1  0  0  0
   -2.6129   -7.4958    0.0000 O   0  0
   -1.3147   -8.2488    0.0000 C   0  0  1  0  0  0
   -1.3146   -9.7488    0.0000 C   0  0
   -0.0155  -10.4988    0.0000 C   0  0  1  0  0  0
   -0.0155  -11.9988    0.0000 O   0  0
    1.2835   -9.7488    0.0000 C   0  0  2  0  0  0
    2.5825  -10.4988    0.0000 O   0  0
    1.2835   -8.2488    0.0000 C   0  0  1  0  0  0
    2.5825   -7.4988    0.0000 C   0  0
   -0.0155   -7.4988    0.0000 O   0  0
   -3.9072   -5.2404    0.0000 C   0  0  2  0  0  0
   -5.2089   -5.9859    0.0000 O   0  0
   -3.9020   -3.7404    0.0000 C   0  0  1  0  0  0
   -5.1985   -2.9860    0.0000 C   0  0
   -2.6004   -2.9949    0.0000 O   0  0
  1  2  1  0
  3  2  1  1
  3  4  1  0
  4  5  2  0
  4  6  1  0
  6  7  1  0
  6  8  2  0
  3  9  1  0
  9 10  1  1
 10 11  1  0
 11 12  2  0
 12 13  1  0
 13 14  2  0
 14 15  1  0
 15 16  1  0
 17 16  1  1
 17 18  1  0
 18 19  1  0
 19 20  1  1
 21 20  1  6
 21 22  1  0
 22 23  1  0
 23 24  1  6
 23 25  1  0
 25 26  1  1
 25 27  1  0
 27 28  1  6
 27 29  1  0
 29 21  1  0
 19 30  1  0
 30 31  1  6
 30 32  1  0
 32 33  1  1
 32 34  1  0
 34 17  1  0
 15 35  2  0
 35 36  1  0
 35 37  1  0
 37 38  1  0
 37 39  2  0
 39 13  1  0
 39 40  1  0
 40 41  1  0
 40 42  2  0
 42 11  1  0
 42 43  1  0
 43 44  2  0
 43 45  1  0
 45  9  1  0
 45 46  1  6
 47 46  1  1
 47 48  1  0
 48 49  1  0
 49 50  1  1
 51 50  1  6
 51 52  1  0
 52 53  1  0
 53 54  1  6
 53 55  1  0
 55 56  1  1
 55 57  1  0
 57 58  1  6
 57 59  1  0
 59 51  1  0
 49 60  1  0
 60 61  1  6
 60 62  1  0
 62 63  1  1
 62 64  1  0
 64 47  1  0
M  END
> <Smiles>
CO[C@H](C(=O)C(C)=O)[C@@H]1Cc2cc3cc(O[C@H]4C[C@@H](O[C@H]5C[C@@H](O)[C@H](O)[C@@H](C)O5)[C@H](O)[C@@H](C)O4)c(C)c(O)c3c(O)c2C(=O)[C@H]1O[C@H]1C[C@@H](O[C@H]2C[C@@H](O)[C@H](O)[C@@H](C)O2)[C@H](O)[C@@H
](C)O1

> <ID>
CHEMBL2152294

> <standard_value>
117.49

> <IC50_uM>
0.11749

> <Activity>
Yes

> <pIC50>
6.929999096

> <BCI>
1

$$$$

  SciTegic03012415362D

 23 26  0  0  1  0            999 V2000
   -0.7318   -4.0693    0.0000 C   0  0
    0.2851   -2.9666    0.0000 C   0  0
    1.7758   -3.1329    0.0000 C   0  0
    2.3947   -1.7666    0.0000 C   0  0
    1.2990   -0.7500    0.0000 C   0  0  1  0  0  0
    1.2990    0.7500    0.0000 C   0  0  2  0  0  0
    2.5981    1.5000    0.0000 C   0  0
    2.5981    3.0000    0.0000 C   0  0
    1.2990    3.7500    0.0000 C   0  0
    1.2990    5.2500    0.0000 C   0  0
    0.0000    6.0000    0.0000 C   0  0
   -0.0001    7.5000    0.0000 O   0  0
   -1.2991    5.2500    0.0000 C   0  0
   -2.6004    5.9977    0.0000 O   0  0
   -3.8991    5.2454    0.0000 C   0  0
   -5.1996    5.9928    0.0000 C   0  0
   -1.2991    3.7500    0.0000 C   0  0
    0.0000    3.0000    0.0000 C   0  0
    0.0000    1.5000    0.0000 C   0  0  1  0  0  0
   -1.2990    0.7500    0.0000 C   0  0
   -1.2990   -0.7500    0.0000 C   0  0
    0.0000   -1.5000    0.0000 C   0  0  2  0  0  0
   -1.2212   -2.3711    0.0000 C   0  0
  1  2  2  0
  2  3  1  0
  3  4  1  0
  5  4  1  6
  5  6  1  0
  6  7  1  1
  7  8  1  0
  8  9  1  0
  9 10  2  0
 10 11  1  0
 11 12  1  0
 11 13  2  0
 13 14  1  0
 14 15  1  0
 15 16  1  0
 13 17  1  0
 17 18  2  0
 18  9  1  0
 18 19  1  0
 19  6  1  0
 19 20  1  6
 20 21  1  0
 21 22  1  0
 22  2  1  0
 22  5  1  0
 22 23  1  6
M  END
> <Smiles>
C=C1CC[C@H]2[C@@H]3CCc4cc(O)c(OCC)cc4[C@H]3CC[C@]12C

> <ID>
CHEMBL1627743

> <standard_value>
120

> <IC50_uM>
0.12

> <Activity>
Yes

> <pIC50>
6.920818754

> <BCI>
1

$$$$

  SciTegic03012415362D

 26 29  0  0  1  0            999 V2000
    3.8983   -0.7459    0.0000 C   0  0
    2.6003   -1.4977    0.0000 O   0  0
    1.2990   -0.7500    0.0000 C   0  0
    1.2990    0.7500    0.0000 C   0  0
    0.0000    1.5000    0.0000 C   0  0
   -1.2990    0.7500    0.0000 C   0  0
   -1.2990   -0.7500    0.0000 C   0  0
    0.0000   -1.5000    0.0000 C   0  0
   -0.0031   -3.0008    0.0000 O   0  0
   -1.3039   -3.7494    0.0000 S   0  0
   -2.6016   -2.9971    0.0000 N   0  0
   -1.3070   -5.2494    0.0000 O   0  0
   -2.6044   -4.4969    0.0000 O   0  0
   -2.5981    1.5000    0.0000 C   0  0
   -2.5981    3.0000    0.0000 C   0  0
   -1.2991    3.7500    0.0000 C   0  0  2  0  0  0
    0.0000    3.0000    0.0000 C   0  0  2  0  0  0
    1.2990    3.7500    0.0000 C   0  0
    1.2990    5.2500    0.0000 C   0  0
    0.0000    6.0000    0.0000 C   0  0  2  0  0  0
    1.2211    6.8711    0.0000 C   0  0
   -0.2851    7.4666    0.0000 C   0  0
    0.7318    8.5693    0.0000 O   0  0
   -1.7759    7.6329    0.0000 C   0  0
   -2.3947    6.2665    0.0000 C   0  0
   -1.2991    5.2500    0.0000 C   0  0  1  0  0  0
  1  2  1  0
  2  3  1  0
  3  4  2  0
  4  5  1  0
  5  6  2  0
  6  7  1  0
  7  8  2  0
  8  3  1  0
  8  9  1  0
  9 10  1  0
 10 11  1  0
 10 12  2  0
 10 13  2  0
  6 14  1  0
 14 15  1  0
 16 15  1  1
 16 17  1  0
 17  5  1  0
 17 18  1  6
 18 19  1  0
 19 20  1  0
 20 21  1  6
 20 22  1  0
 22 23  2  0
 22 24  1  0
 24 25  1  0
 26 25  1  6
 26 16  1  0
 26 20  1  0
M  END
> <Smiles>
COc1cc2c(cc1OS(N)(=O)=O)CC[C@@H]1[C@@H]2CC[C@]2(C)C(=O)CC[C@@H]12

> <ID>
CHEMBL372231

> <standard_value>
120

> <IC50_uM>
0.12

> <Activity>
Yes

> <pIC50>
6.920818754

> <BCI>
1

$$$$

  SciTegic03012415362D

 39 43  0  0  1  0            999 V2000
    3.8983   -0.7459    0.0000 C   0  0
    2.6003   -1.4977    0.0000 O   0  0
    1.2990   -0.7500    0.0000 C   0  0
    1.2990    0.7500    0.0000 C   0  0
    0.0000    1.5000    0.0000 C   0  0
   -1.2990    0.7500    0.0000 C   0  0
   -1.2990   -0.7500    0.0000 C   0  0
    0.0000   -1.5000    0.0000 C   0  0
    0.0000   -3.0000    0.0000 C   0  0
    1.2990   -3.7500    0.0000 O   0  0
   -1.2990   -3.7500    0.0000 C   0  0
   -1.2990   -5.2500    0.0000 C   0  0
    0.0000   -6.0000    0.0000 O   0  0
   -2.5981   -6.0000    0.0000 C   0  0
   -3.8971   -5.2500    0.0000 C   0  0
   -3.8971   -3.7500    0.0000 C   0  0
   -5.1961   -3.0000    0.0000 O   0  0
   -2.5981   -3.0000    0.0000 C   0  0
   -2.5981   -1.5000    0.0000 C   0  0
   -3.8971   -0.7500    0.0000 O   0  0
   -5.1961   -6.0000    0.0000 C   0  0
   -5.1961   -7.5000    0.0000 C   0  0  1  0  0  0
   -6.4764   -6.7184    0.0000 O   0  0
   -5.1597   -8.9800    0.0000 C   0  0
   -6.4588   -9.7299    0.0000 O   0  0
   -3.8602   -9.7310    0.0000 C   0  0
   -3.8599  -11.2310    0.0000 O   0  0
   -3.8971   -8.2500    0.0000 C   0  0
   -2.5981   -7.5000    0.0000 C   0  0  2  0  0  0
   -1.2998   -8.2531    0.0000 O   0  0
   -1.3020   -9.7539    0.0000 C   0  0  1  0  0  0
   -0.0056  -10.5085    0.0000 C   0  0
   -0.0108  -12.0085    0.0000 C   0  0  2  0  0  0
    1.2857  -12.7630    0.0000 N   0  0
   -1.3124  -12.7540    0.0000 C   0  0  2  0  0  0
   -1.3176  -14.2540    0.0000 O   0  0
   -2.6088  -11.9995    0.0000 C   0  0  2  0  0  0
   -3.9104  -12.7450    0.0000 C   0  0
   -2.6036  -10.4995    0.0000 O   0  0
  1  2  1  0
  2  3  1  0
  3  4  2  0
  4  5  1  0
  5  6  2  0
  6  7  1  0
  7  8  2  0
  8  3  1  0
  8  9  1  0
  9 10  2  0
  9 11  1  0
 11 12  2  0
 12 13  1  0
 12 14  1  0
 14 15  2  0
 15 16  1  0
 16 17  1  0
 16 18  2  0
 18 11  1  0
 18 19  1  0
 19  7  1  0
 19 20  2  0
 15 21  1  0
 21 22  1  0
 22 23  1  1
 22 24  1  0
 24 25  2  0
 24 26  1  0
 26 27  1  0
 22 28  1  0
 28 29  1  0
 29 14  1  0
 29 30  1  1
 31 30  1  1
 31 32  1  0
 32 33  1  0
 33 34  1  6
 33 35  1  0
 35 36  1  6
 35 37  1  0
 37 38  1  6
 37 39  1  0
 39 31  1  0
M  END
> <Smiles>
COc1cccc2c1C(=O)c1c(O)c3c(c(O)c1C2=O)C[C@@](O)(C(=O)CO)C[C@@H]3O[C@H]1C[C@H](N)[C@H](O)[C@H](C)O1

> <ID>
CHEMBL53463

> <standard_value>
120

> <IC50_uM>
0.12

> <Activity>
Yes

> <pIC50>
6.920818754

> <BCI>
1

$$$$

  SciTegic03012415362D

 31 34  0  0  0  0            999 V2000
    8.7323   -0.6811    0.0000 C   0  0
    7.7136    0.4199    0.0000 C   0  0
    6.2497    0.0890    0.0000 O   0  0
    5.2305    1.1907    0.0000 C   0  0
    5.6751    2.6232    0.0000 O   0  0
    3.7691    0.8603    0.0000 C   0  0
    3.1796   -0.5190    0.0000 C   0  0
    1.6852   -0.3846    0.0000 C   0  0
    1.3514    1.0778    0.0000 C   0  0  3  0  0  0
    2.6395    1.8472    0.0000 N   0  0
    2.7770    3.3391    0.0000 C   0  0
    4.1398    3.9679    0.0000 C   0  0
    4.2797    5.4614    0.0000 C   0  0
    5.6430    6.0871    0.0000 C   0  0
    5.7798    7.5817    0.0000 O   0  0
    4.5550    8.4477    0.0000 C   0  0
    6.8665    5.2193    0.0000 C   0  0
    8.2318    5.8425    0.0000 O   0  0
    9.4540    4.9730    0.0000 C   0  0
    6.7267    3.7258    0.0000 C   0  0
    7.9490    2.8550    0.0000 O   0  0
    7.8071    1.3618    0.0000 C   0  0
    5.3634    3.1001    0.0000 C   0  0
    0.0000    1.7286    0.0000 C   0  0
   -0.2015    3.2154    0.0000 O   0  0
   -1.6774    3.4832    0.0000 N   0  0
   -2.3882    2.1623    0.0000 C   0  0
   -1.3515    1.0777    0.0000 C   0  0
   -1.6852   -0.3847    0.0000 C   0  0
   -0.7500   -1.5574    0.0000 C   0  0
    0.7500   -1.5574    0.0000 C   0  0
  1  2  1  0
  2  3  1  0
  3  4  1  0
  4  5  2  0
  4  6  1  0
  6  7  2  0
  7  8  1  0
  8  9  2  0
  9 10  1  4
 10  6  1  0
 10 11  1  0
 11 12  1  0
 12 13  2  0
 13 14  1  0
 14 15  1  0
 15 16  1  0
 14 17  2  0
 17 18  1  0
 18 19  1  0
 17 20  1  0
 20 21  1  0
 21 22  1  0
 20 23  2  0
 23 12  1  0
  9 24  1  0
 24 25  1  0
 25 26  1  0
 26 27  2  0
 27 28  1  0
 28 24  2  0
 28 29  1  0
 29 30  1  0
 30 31  1  0
 31  8  1  0
M  END
> <Smiles>
CCOC(=O)c1cc2c(n1Cc1cc(OC)c(OC)c(OC)c1)-c1oncc1CCC2

> <ID>
CHEMBL4755273

> <standard_value>
120

> <IC50_uM>
0.12

> <Activity>
Yes

> <pIC50>
6.920818754

> <BCI>
1

$$$$

  SciTegic03012415362D

 21 24  0  0  0  0            999 V2000
    2.5981   -1.5000    0.0000 O   0  0
    1.2990   -0.7500    0.0000 C   0  0
    1.2990    0.7500    0.0000 C   0  0
    0.0000    1.5000    0.0000 C   0  0
    0.0000    3.0008    0.0000 C   0  0
   -1.3002    3.7488    0.0000 C   0  0
   -1.3026    5.2488    0.0000 C   0  0
   -0.0048    6.0009    0.0000 C   0  0
    1.2954    5.2529    0.0000 C   0  0
    1.2978    3.7529    0.0000 C   0  0
    2.5981    3.0050    0.0000 F   0  0
   -1.2990    0.7500    0.0000 N   0  0
   -1.2990   -0.7500    0.0000 C   0  0
   -2.5981   -1.5000    0.0000 C   0  0
   -2.5981   -3.0000    0.0000 C   0  0
   -1.2990   -3.7500    0.0000 C   0  0
    0.0000   -3.0000    0.0000 C   0  0
    0.0000   -1.5000    0.0000 C   0  0
   -1.6105   -5.2165    0.0000 O   0  0
   -3.1022   -5.3733    0.0000 C   0  0
   -3.7124   -4.0030    0.0000 O   0  0
  1  2  2  0
  2  3  1  0
  3  4  2  0
  4  5  1  0
  5  6  2  0
  6  7  1  0
  7  8  2  0
  8  9  1  0
  9 10  2  0
 10  5  1  0
 10 11  1  0
  4 12  1  0
 12 13  1  0
 13 14  2  0
 14 15  1  0
 15 16  2  0
 16 17  1  0
 17 18  2  0
 18  2  1  0
 18 13  1  0
 16 19  1  0
 19 20  1  0
 20 21  1  0
 21 15  1  0
M  END
> <Smiles>
O=c1cc(-c2ccccc2F)[nH]c2cc3c(cc12)OCO3

> <ID>
CHEMBL280099

> <standard_value>
120.23

> <IC50_uM>
0.12023

> <Activity>
Yes

> <pIC50>
6.919987153

> <BCI>
1

$$$$

  SciTegic03012415362D

 86 97  0  0  1  0            999 V2000
    2.6018   -5.9994    0.0000 C   0  0
    3.9008   -5.2492    0.0000 O   0  0
    3.9014   -3.7484    0.0000 C   0  0
    2.6012   -3.0004    0.0000 C   0  0
    2.5987   -1.5004    0.0000 C   0  0
    1.2990   -0.7500    0.0000 C   0  0  2  0  0  0
    1.2990    0.7500    0.0000 C   0  0
    2.5981    1.5000    0.0000 C   0  0
    2.5981    3.0000    0.0000 C   0  0
    1.2990    3.7500    0.0000 C   0  0
    0.0000    3.0000    0.0000 C   0  0
    0.0000    1.5000    0.0000 C   0  0
   -1.2990    0.7500    0.0000 C   0  0  1  0  0  0
   -2.5973    1.5031    0.0000 N   0  0
   -2.5951    3.0039    0.0000 C   0  0
   -1.2948    3.7516    0.0000 O   0  0
   -3.8933    3.7570    0.0000 C   0  0
   -3.8912    5.2578    0.0000 N   0  0
   -5.1876    6.0124    0.0000 C   0  0
   -5.1824    7.5124    0.0000 C   0  0
   -3.8808    8.2579    0.0000 N   0  0
   -3.8726    9.7587    0.0000 C   0  0
   -2.5692   10.5028    0.0000 C   0  0
   -2.5609   12.0036    0.0000 C   0  0
   -1.2575   12.7476    0.0000 C   0  0
   -1.2492   14.2484    0.0000 C   0  0
    0.0542   14.9925    0.0000 C   0  0
    0.0625   16.4933    0.0000 C   0  0
    1.3659   17.2373    0.0000 C   0  0
    1.3741   18.7381    0.0000 C   0  0
    2.6775   19.4822    0.0000 C   0  0
    2.6858   20.9830    0.0000 N   0  0
    3.9874   21.7286    0.0000 C   0  0
    3.9926   23.2286    0.0000 C   0  0
    2.6962   23.9831    0.0000 N   0  0
    2.6984   25.4839    0.0000 C   0  0
    1.4002   26.2370    0.0000 C   0  0
    0.0998   25.4893    0.0000 O   0  0
    1.4023   27.7378    0.0000 N   0  0
    0.1041   28.4909    0.0000 C   0  0  2  0  0  0
    0.1040   29.9909    0.0000 C   0  0
    1.4031   30.7409    0.0000 C   0  0
    1.4031   32.2409    0.0000 C   0  0
    0.1041   32.9909    0.0000 C   0  0
   -1.1950   32.2410    0.0000 C   0  0
   -1.1950   30.7410    0.0000 C   0  0
   -2.4941   29.9910    0.0000 C   0  0  1  0  0  0
   -3.7937   30.7414    0.0000 C   0  0
   -5.0941   29.9935    0.0000 C   0  0
   -6.3919   30.7456    0.0000 C   0  0
   -7.6913   29.9946    0.0000 O   0  0
   -7.6916   28.4946    0.0000 C   0  0
   -6.3895   32.2456    0.0000 C   0  0
   -7.6873   32.9977    0.0000 O   0  0
   -5.0893   32.9935    0.0000 C   0  0
   -5.0838   34.4943    0.0000 O   0  0
   -3.7825   35.2404    0.0000 C   0  0
   -3.7914   32.2414    0.0000 C   0  0
   -2.4941   28.4910    0.0000 C   0  0  1  0  0  0
   -3.6084   27.4880    0.0000 C   0  0
   -5.0756   27.8001    0.0000 O   0  0
   -2.9983   26.1177    0.0000 O   0  0
   -1.5065   26.2745    0.0000 C   0  0
   -1.1951   27.7410    0.0000 C   0  0  2  0  0  0
    0.4155   34.4574    0.0000 O   0  0
    1.9073   34.6142    0.0000 C   0  0
    2.5174   33.2439    0.0000 O   0  0
    1.3946   23.2376    0.0000 C   0  0
    1.3894   21.7376    0.0000 C   0  0
   -2.5844    7.5034    0.0000 C   0  0
   -2.5896    6.0034    0.0000 C   0  0
   -1.2990   -0.7500    0.0000 C   0  0  1  0  0  0
   -2.4133   -1.7530    0.0000 C   0  0
   -1.8032   -3.1233    0.0000 O   0  0
   -0.3114   -2.9665    0.0000 C   0  0
    0.6924   -4.0811    0.0000 O   0  0
    0.0000   -1.5000    0.0000 C   0  0  2  0  0  0
    1.6104    5.2165    0.0000 O   0  0
    3.1022    5.3733    0.0000 C   0  0
    3.7123    4.0030    0.0000 O   0  0
    3.8967   -0.7484    0.0000 C   0  0
    5.1969   -1.4963    0.0000 C   0  0
    6.4939   -0.7411    0.0000 O   0  0
    6.4894    0.7589    0.0000 C   0  0
    5.1993   -2.9963    0.0000 C   0  0
    6.4995   -3.7442    0.0000 O   0  0
  1  2  1  0
  2  3  1  0
  3  4  2  0
  4  5  1  0
  6  5  1  1
  6  7  1  0
  7  8  2  0
  8  9  1  0
  9 10  2  0
 10 11  1  0
 11 12  2  0
 12  7  1  0
 12 13  1  0
 13 14  1  6
 14 15  1  0
 15 16  2  0
 15 17  1  0
 17 18  1  0
 18 19  1  0
 19 20  1  0
 20 21  1  0
 21 22  1  0
 22 23  1  0
 23 24  1  0
 24 25  1  0
 25 26  1  0
 26 27  1  0
 27 28  1  0
 28 29  1  0
 29 30  1  0
 30 31  1  0
 31 32  1  0
 32 33  1  0
 33 34  1  0
 34 35  1  0
 35 36  1  0
 36 37  1  0
 37 38  2  0
 37 39  1  0
 40 39  1  1
 40 41  1  0
 41 42  2  0
 42 43  1  0
 43 44  2  0
 44 45  1  0
 45 46  2  0
 46 41  1  0
 46 47  1  0
 47 48  1  6
 48 49  2  0
 49 50  1  0
 50 51  1  0
 51 52  1  0
 50 53  2  0
 53 54  1  0
 53 55  1  0
 55 56  1  0
 56 57  1  0
 55 58  2  0
 58 48  1  0
 47 59  1  0
 59 60  1  6
 60 61  2  0
 60 62  1  0
 62 63  1  0
 64 63  1  1
 64 59  1  0
 64 40  1  0
 44 65  1  0
 65 66  1  0
 66 67  1  0
 67 43  1  0
 35 68  1  0
 68 69  1  0
 69 32  1  0
 21 70  1  0
 70 71  1  0
 71 18  1  0
 13 72  1  0
 72 73  1  6
 73 74  1  0
 74 75  1  0
 75 76  2  0
 77 75  1  1
 77  6  1  0
 77 72  1  0
 10 78  1  0
 78 79  1  0
 79 80  1  0
 80  9  1  0
  5 81  2  0
 81 82  1  0
 82 83  1  0
 83 84  1  0
 82 85  2  0
 85  3  1  0
 85 86  1  0
M  END
> <Smiles>
COc1cc([C@@H]2c3cc4c(cc3[C@@H](NC(=O)CN3CCN(CCCCCCCCCCN5CCN(CC(=O)N[C@@H]6c7cc8c(cc7[C@@H](c7cc(OC)c(O)c(OC)c7)[C@H]7C(=O)OC[C@@H]76)OCO8)CC5)CC3)[C@H]3COC(=O)[C@H]23)OCO4)cc(OC)c1O

> <ID>
CHEMBL3589854

> <standard_value>
122

> <IC50_uM>
0.122

> <Activity>
Yes

> <pIC50>
6.913640169

> <BCI>
1

$$$$

  SciTegic03012415362D

 30 34  0  0  0  0            999 V2000
    6.4983   -0.7414    0.0000 C   0  0
    5.2003   -1.4932    0.0000 N   0  0
    3.8990   -0.7455    0.0000 C   0  0
    2.6003   -1.4977    0.0000 C   0  0
    1.2990   -0.7500    0.0000 N   0  0
    1.2990    0.7500    0.0000 C   0  0
    2.5981    1.5000    0.0000 O   0  0
    0.0000    1.5000    0.0000 C   0  0
    0.0000    3.0000    0.0000 C   0  0
   -1.2991    3.7500    0.0000 C   0  0
   -1.2960    5.2508    0.0000 O   0  0
    0.0041    5.9990    0.0000 C   0  0
   -2.5981    3.0000    0.0000 C   0  0
   -3.8994    3.7477    0.0000 O   0  0
   -5.1974    2.9959    0.0000 C   0  0
   -2.5981    1.5000    0.0000 C   0  0
   -1.2990    0.7500    0.0000 C   0  0
   -1.2990   -0.7500    0.0000 C   0  0
   -2.5981   -1.5000    0.0000 C   0  0
   -2.5981   -3.0000    0.0000 C   0  0
   -1.2990   -3.7500    0.0000 C   0  0
   -1.2990   -5.2500    0.0000 C   0  0
    0.0000   -6.0000    0.0000 C   0  0
    1.2991   -5.2500    0.0000 C   0  0
    1.2991   -3.7500    0.0000 C   0  0
    0.0000   -3.0000    0.0000 C   0  0
    0.0000   -1.5000    0.0000 C   0  0
    2.4134   -6.2529    0.0000 O   0  0
    1.8033   -7.6233    0.0000 C   0  0
    0.3115   -7.4665    0.0000 O   0  0
  1  2  1  0
  2  3  1  0
  3  4  1  0
  4  5  1  0
  5  6  1  0
  6  7  2  0
  6  8  1  0
  8  9  2  0
  9 10  1  0
 10 11  1  0
 11 12  1  0
 10 13  2  0
 13 14  1  0
 14 15  1  0
 13 16  1  0
 16 17  2  0
 17  8  1  0
 17 18  1  0
 18 19  2  0
 19 20  1  0
 20 21  2  0
 21 22  1  0
 22 23  2  0
 23 24  1  0
 24 25  2  0
 25 26  1  0
 26 21  1  0
 26 27  2  0
 27 18  1  0
 27  5  1  0
 24 28  1  0
 28 29  1  0
 29 30  1  0
 30 23  1  0
M  END
> <Smiles>
CNCCn1c(=O)c2cc(OC)c(OC)cc2c2ccc3cc4c(cc3c21)OCO4

> <ID>
CHEMBL4570069

> <standard_value>
124

> <IC50_uM>
0.124

> <Activity>
Yes

> <pIC50>
6.906578315

> <BCI>
1

$$$$

  SciTegic03012415362D

 34 37  0  0  0  0            999 V2000
    6.4833  -12.7574    0.0000 C   0  0
    5.1843  -12.0074    0.0000 C   0  0
    3.8852  -12.7573    0.0000 C   0  0
    2.5862  -12.0073    0.0000 C   0  0
    2.5863  -10.5073    0.0000 C   0  0
    1.2873   -9.7573    0.0000 C   0  0
    3.8853   -9.7572    0.0000 C   0  0
    3.8885   -8.2564    0.0000 C   0  0
    5.1893   -7.5079    0.0000 O   0  0
    5.1924   -6.0070    0.0000 C   0  0
    3.8934   -5.2570    0.0000 C   0  0
    3.8933   -3.7570    0.0000 C   0  0
    2.5951   -3.0039    0.0000 N   0  0
    2.5973   -1.5031    0.0000 C   0  0
    3.8976   -0.7553    0.0000 O   0  0
    1.2990   -0.7500    0.0000 C   0  0
    1.2990    0.7500    0.0000 C   0  0
    0.0000    1.5000    0.0000 C   0  0
   -1.2990    0.7500    0.0000 C   0  0
   -1.2990   -0.7500    0.0000 C   0  0
    0.0000   -1.5000    0.0000 C   0  0
   -2.7248   -1.2135    0.0000 O   0  0
   -3.6065    0.0000    0.0000 C   0  0
   -2.7248    1.2135    0.0000 O   0  0
    5.1925   -3.0070    0.0000 C   0  0
    6.4915   -3.7571    0.0000 C   0  0
    6.4915   -5.2571    0.0000 C   0  0
    7.7928   -6.0048    0.0000 N   0  0
    7.7953   -7.5048    0.0000 C   0  0
    9.0914   -5.2526    0.0000 S   0  0
   10.3891   -4.5002    0.0000 C   0  0
   10.3920   -6.0000    0.0000 O   0  0
    9.0889   -3.7526    0.0000 O   0  0
    5.1844  -10.5074    0.0000 C   0  0
  1  2  1  0
  2  3  2  0
  3  4  1  0
  4  5  2  0
  5  6  1  0
  5  7  1  0
  7  8  1  0
  8  9  1  0
  9 10  1  0
 10 11  2  0
 11 12  1  0
 12 13  1  0
 13 14  1  0
 14 15  2  0
 14 16  1  0
 16 17  2  0
 17 18  1  0
 18 19  2  0
 19 20  1  0
 20 21  2  0
 21 16  1  0
 20 22  1  0
 22 23  1  0
 23 24  1  0
 24 19  1  0
 12 25  2  0
 25 26  1  0
 26 27  2  0
 27 10  1  0
 27 28  1  0
 28 29  1  0
 28 30  1  0
 30 31  1  0
 30 32  2  0
 30 33  2  0
  7 34  2  0
 34  2  1  0
M  END
> <Smiles>
Cc1ccc(C)c(COc2cc(NC(=O)c3ccc4c(c3)OCO4)ccc2N(C)S(C)(=O)=O)c1

> <ID>
CHEMBL1935538

> <standard_value>
125

> <IC50_uM>
0.125

> <Activity>
Yes

> <pIC50>
6.903089987

> <BCI>
1

$$$$

  SciTegic03012415362D

 32 35  0  0  0  0            999 V2000
    2.5951   -3.0031    0.0000 C   0  0
    2.5973   -1.5031    0.0000 O   0  0
    1.2990   -0.7500    0.0000 C   0  0
    1.2990    0.7500    0.0000 C   0  0
    0.0000    1.5000    0.0000 C   0  0
    0.0000    3.0000    0.0000 C   0  0
   -1.2990    0.7500    0.0000 C   0  0
   -1.2990   -0.7500    0.0000 C   0  0
   -2.5987   -1.5004    0.0000 C   0  0
   -3.9511   -0.8815    0.0000 C   0  0
   -4.2568    0.5878    0.0000 C   0  0
   -3.2235    1.6679    0.0000 C   0  0
   -3.6446    3.1076    0.0000 C   0  0
   -5.1020    3.4627    0.0000 N   0  0
   -6.1382    2.3782    0.0000 C   0  0
   -7.5963    2.7335    0.0000 C   0  0
   -8.0198    4.1725    0.0000 C   0  0
   -9.4777    4.5253    0.0000 C   0  0
  -10.5122    3.4391    0.0000 C   0  0
  -11.9717    3.7891    0.0000 N   0  0
  -13.0046    2.7014    0.0000 C   0  0
  -12.3976    5.2274    0.0000 C   0  0
  -10.0888    2.0001    0.0000 C   0  0
   -8.6309    1.6473    0.0000 C   0  0
   -5.7171    0.9385    0.0000 C   0  0
   -4.9530   -1.9978    0.0000 C   0  0
   -4.2010   -3.2957    0.0000 N   0  0
   -2.7343   -2.9815    0.0000 N   0  0
   -1.6137   -3.9759    0.0000 C   0  0
   -1.9142   -5.4464    0.0000 C   0  0
   -2.2146   -6.9160    0.0000 N   0  0
    0.0000   -1.5000    0.0000 C   0  0
  1  2  1  0
  2  3  1  0
  3  4  2  0
  4  5  1  0
  5  6  1  0
  5  7  2  0
  7  8  1  0
  8  9  1  0
  9 10  2  0
 10 11  1  0
 11 12  2  0
 12 13  1  0
 13 14  2  0
 14 15  1  0
 15 16  1  0
 16 17  2  0
 17 18  1  0
 18 19  2  0
 19 20  1  0
 20 21  1  0
 20 22  1  0
 19 23  1  0
 23 24  2  0
 24 16  1  0
 15 25  2  0
 25 11  1  0
 10 26  1  0
 26 27  2  0
 27 28  1  0
 28  9  1  0
 28 29  1  0
 29 30  1  0
 30 31  3  0
  8 32  2  0
 32  3  1  0
M  END
> <Smiles>
COc1cc(C)cc(-c2c(-c3ccnc(-c4ccc(N(C)C)cc4)c3)cnn2CC#N)c1

> <ID>
CHEMBL578229

> <standard_value>
127

> <IC50_uM>
0.127

> <Activity>
Yes

> <pIC50>
6.896196279

> <BCI>
1

$$$$

  SciTegic03012415362D

 34 38  0  0  0  0            999 V2000
    3.8983   -0.7459    0.0000 C   0  0
    2.6003   -1.4977    0.0000 O   0  0
    1.2990   -0.7500    0.0000 C   0  0
    1.2990    0.7500    0.0000 C   0  0
    0.0000    1.5000    0.0000 C   0  0
   -1.2990    0.7500    0.0000 C   0  0
   -1.2990   -0.7500    0.0000 C   0  0
    0.0000   -1.5000    0.0000 C   0  0
    0.0000   -3.0000    0.0000 O   0  0
   -2.4133    1.7530    0.0000 C   0  0
   -1.8032    3.1233    0.0000 C   0  0
   -2.6838    4.3363    0.0000 C   0  0
   -2.0737    5.7066    0.0000 C   0  0
   -2.9554    6.9201    0.0000 C   0  0
   -4.4472    6.7633    0.0000 C   0  0
   -5.3318    7.9757    0.0000 N   0  3
   -6.8234    7.8168    0.0000 O   0  0
   -4.7241    9.3471    0.0000 O   0  5
   -5.0572    5.3930    0.0000 C   0  0
   -4.1756    4.1795    0.0000 C   0  0
   -4.7857    2.8092    0.0000 C   0  0
   -6.2774    2.6524    0.0000 O   0  0
   -3.9040    1.5956    0.0000 N   0  0
   -4.5167    0.2256    0.0000 C   0  0
   -6.0094    0.0702    0.0000 C   0  0
   -6.6221   -1.2999    0.0000 C   0  0
   -8.1149   -1.4552    0.0000 N   0  0
   -8.7293   -2.8237    0.0000 C   0  0
  -10.2215   -2.9759    0.0000 C   0  0
  -11.0995   -1.7597    0.0000 O   0  0
  -10.4852   -0.3913    0.0000 C   0  0
   -8.9930   -0.2390    0.0000 C   0  0
   -0.3115    2.9665    0.0000 C   0  0
    0.6923    4.0811    0.0000 O   0  0
  1  2  1  0
  2  3  1  0
  3  4  2  0
  4  5  1  0
  5  6  2  0
  6  7  1  0
  7  8  2  0
  8  3  1  0
  8  9  1  0
  6 10  1  0
 10 11  2  0
 11 12  1  0
 12 13  2  0
 13 14  1  0
 14 15  2  0
 15 16  1  0
 16 17  2  0
 16 18  1  0
 15 19  1  0
 19 20  2  0
 20 12  1  0
 20 21  1  0
 21 22  2  0
 21 23  1  0
 23 10  1  0
 23 24  1  0
 24 25  1  0
 25 26  1  0
 26 27  1  0
 27 28  1  0
 28 29  1  0
 29 30  1  0
 30 31  1  0
 31 32  1  0
 32 27  1  0
 11 33  1  0
 33  5  1  0
 33 34  2  0
M  CHG  2  16   1  18  -1
M  END
> <Smiles>
Br.COc1cc2c(cc1O)-c1c(c3ccc([N+](=O)[O-])cc3c(=O)n1CCCN1CCOCC1)C2=O

> <ID>
CHEMBL3422390

> <standard_value>
130

> <IC50_uM>
0.13

> <Activity>
Yes

> <pIC50>
6.886056648

> <BCI>
1

> <RemovedSalts>
HBr

$$$$

  SciTegic03012415362D

 44 47  0  0  1  0            999 V2000
    2.5852  -10.5054    0.0000 C   0  0
    3.8853   -9.7572    0.0000 O   0  0
    3.8885   -8.2564    0.0000 C   0  0
    5.1893   -7.5079    0.0000 O   0  0
    5.1924   -6.0070    0.0000 C   0  0
    3.8934   -5.2570    0.0000 C   0  0
    3.8933   -3.7570    0.0000 C   0  0
    2.5951   -3.0039    0.0000 C   0  0
    2.5973   -1.5031    0.0000 C   0  0
    1.2990   -0.7500    0.0000 C   0  0
    1.2990    0.7500    0.0000 C   0  0
    0.0000    1.5000    0.0000 C   0  0
    0.0031    3.0008    0.0000 C   0  0
    1.3032    3.7490    0.0000 O   0  0
   -1.2990    0.7500    0.0000 C   0  0
   -1.2990   -0.7500    0.0000 C   0  0
    0.0000   -1.5000    0.0000 C   0  0
   -2.5981   -1.5000    0.0000 C   0  0
   -3.8971   -0.7500    0.0000 C   0  0  2  0  0  0
   -5.1962   -1.5000    0.0000 C   0  0
   -3.8798   -2.2191    0.0000 C   0  0
   -6.5124   -2.2193    0.0000 C   0  0
   -6.4952   -0.7500    0.0000 C   0  0  2  0  0  0
   -7.7942   -1.5000    0.0000 O   0  0
   -6.4952    0.7500    0.0000 C   0  0
   -5.1962    1.5000    0.0000 C   0  0
   -3.8971    0.7500    0.0000 C   0  0  2  0  0  0
   -3.8971    2.2500    0.0000 C   0  0
   -2.5981    1.5000    0.0000 O   0  0
    5.1925   -3.0070    0.0000 C   0  0
    6.4915   -3.7571    0.0000 C   0  0
    7.7897   -3.0040    0.0000 O   0  0
    7.7876   -1.5040    0.0000 C   0  0
    6.4915   -5.2571    0.0000 C   0  0
    7.7897   -6.0102    0.0000 C   0  0
    7.7875   -7.5110    0.0000 C   0  0
    9.0857   -8.2641    0.0000 C   0  0
   10.3860   -7.5164    0.0000 C   0  0
    9.0835   -9.7650    0.0000 C   0  0
   10.3817  -10.5181    0.0000 C   0  0
   10.3795  -12.0189    0.0000 C   0  0
   11.6777  -12.7720    0.0000 C   0  0
   11.6756  -14.2720    0.0000 C   0  0
   12.9781  -12.0243    0.0000 C   0  0
  1  2  1  0
  2  3  1  0
  3  4  1  0
  4  5  1  0
  5  6  2  0
  6  7  1  0
  7  8  1  0
  8  9  2  0
  9 10  1  0
 10 11  2  0
 11 12  1  0
 12 13  1  0
 13 14  1  0
 12 15  2  0
 15 16  1  0
 16 17  2  0
 17 10  1  0
 16 18  1  0
 19 18  1  6
 19 20  1  0
 20 21  1  0
 20 22  1  0
 20 23  1  0
 23 24  1  6
 23 25  1  0
 25 26  1  0
 26 27  1  0
 27 19  1  0
 27 28  1  6
 27 29  1  0
 29 15  1  0
  7 30  2  0
 30 31  1  0
 31 32  1  0
 32 33  1  0
 31 34  2  0
 34  5  1  0
 34 35  1  0
 35 36  1  0
 36 37  2  0
 37 38  1  0
 37 39  1  0
 39 40  1  0
 40 41  1  0
 41 42  2  0
 42 43  1  0
 42 44  1  0
M  END
> <Smiles>
COCOc1cc(/C=C/c2cc(CO)c3c(c2)C[C@@H]2C(C)(C)[C@H](O)CC[C@@]2(C)O3)cc(OC)c1C/C=C(\C)CCC=C(C)C

> <ID>
CHEMBL1927856

> <standard_value>
141.25

> <IC50_uM>
0.14125

> <Activity>
Yes

> <pIC50>
6.850011544

> <BCI>
1

$$$$

  SciTegic03012415362D

 33 37  0  0  1  0            999 V2000
    3.8983   -0.7459    0.0000 C   0  0
    2.6003   -1.4977    0.0000 O   0  0
    1.2990   -0.7500    0.0000 C   0  0
    1.2990    0.7500    0.0000 C   0  0
    0.0000    1.5000    0.0000 C   0  0
   -0.0031    3.0008    0.0000 C   0  0
   -1.3039    3.7494    0.0000 C   0  0
   -1.3070    5.2502    0.0000 C   0  0
   -2.6061    6.0003    0.0000 C   0  0
   -2.6061    7.5003    0.0000 C   0  0
   -3.9074    8.2480    0.0000 O   0  0
   -5.2054    7.4961    0.0000 C   0  0
   -1.3071    8.2503    0.0000 C   0  0
   -0.9957    9.7168    0.0000 C   0  0
    0.4961    9.8736    0.0000 C   0  0
    1.1062    8.5033    0.0000 N   0  0
   -0.0080    7.5003    0.0000 C   0  0
   -0.0080    6.0003    0.0000 C   0  0
   -1.2990    0.7500    0.0000 C   0  0
   -1.2990   -0.7500    0.0000 C   0  0
    0.0000   -1.5000    0.0000 C   0  0
    0.0000   -3.0000    0.0000 O   0  0
   -1.2990   -3.7500    0.0000 C   0  0  2  0  0  0
    0.0000   -4.5000    0.0000 C   0  0
   -1.2990   -5.2500    0.0000 C   0  0
   -2.5981   -6.0000    0.0000 C   0  0
   -3.8971   -5.2500    0.0000 C   0  0  1  0  0  0
   -5.1961   -6.0000    0.0000 O   0  0
   -3.8971   -3.7500    0.0000 C   0  0
   -3.8617   -2.2504    0.0000 C   0  0
   -5.1782   -4.5303    0.0000 C   0  0
   -2.5981   -3.0000    0.0000 C   0  0  1  0  0  0
   -2.5981   -1.5000    0.0000 C   0  0
  1  2  1  0
  2  3  1  0
  3  4  2  0
  4  5  1  0
  5  6  1  0
  6  7  2  0
  7  8  1  0
  8  9  2  0
  9 10  1  0
 10 11  1  0
 11 12  1  0
 10 13  2  0
 13 14  1  0
 14 15  2  0
 15 16  1  0
 16 17  1  0
 17 13  1  0
 17 18  2  0
 18  8  1  0
  5 19  2  0
 19 20  1  0
 20 21  2  0
 21  3  1  0
 21 22  1  0
 22 23  1  0
 23 24  1  1
 23 25  1  0
 25 26  1  0
 26 27  1  0
 27 28  1  1
 27 29  1  0
 29 30  1  0
 29 31  1  0
 29 32  1  0
 32 23  1  0
 32 33  1  1
 33 20  1  0
M  END
> <Smiles>
COc1cc(/C=C/c2cc(OC)c3cc[nH]c3c2)cc2c1O[C@]1(C)CC[C@@H](O)C(C)(C)[C@H]1C2

> <ID>
CHEMBL3233615

> <standard_value>
141.25

> <IC50_uM>
0.14125

> <Activity>
Yes

> <pIC50>
6.850011544

> <BCI>
1

$$$$

  SciTegic03012415362D

 43 47  0  0  1  0            999 V2000
    3.8983   -0.7459    0.0000 C   0  0
    2.6003   -1.4977    0.0000 O   0  0
    1.2990   -0.7500    0.0000 C   0  0
    1.2990    0.7500    0.0000 C   0  0
    0.0000    1.5000    0.0000 C   0  0
   -0.0031    3.0008    0.0000 C   0  0
   -1.3039    3.7494    0.0000 C   0  0
   -1.3070    5.2502    0.0000 C   0  0
   -2.6061    6.0003    0.0000 C   0  0
   -2.6061    7.5003    0.0000 C   0  0
   -3.9074    8.2480    0.0000 O   0  0
   -5.2054    7.4961    0.0000 C   0  0
   -1.3071    8.2503    0.0000 C   0  0
   -0.9957    9.7168    0.0000 C   0  0
   -1.9961   10.8321    0.0000 C   0  0
   -1.5306   12.2589    0.0000 C   0  0
   -2.5328   13.3761    0.0000 C   0  0
   -4.0005   13.0665    0.0000 C   0  0
   -2.0673   14.8029    0.0000 C   0  0
   -3.0695   15.9201    0.0000 C   0  0
   -2.6040   17.3469    0.0000 C   0  0
   -3.6061   18.4641    0.0000 C   0  0
   -3.1409   19.8901    0.0000 C   0  0
   -5.0738   18.1544    0.0000 C   0  0
    0.4961    9.8736    0.0000 C   0  0
    1.1062    8.5033    0.0000 N   0  0
   -0.0080    7.5003    0.0000 C   0  0
   -0.0080    6.0003    0.0000 C   0  0
   -1.2990    0.7500    0.0000 C   0  0
   -1.2990   -0.7500    0.0000 C   0  0
    0.0000   -1.5000    0.0000 C   0  0
    0.0000   -3.0000    0.0000 O   0  0
   -1.2990   -3.7500    0.0000 C   0  0  2  0  0  0
    0.0000   -4.5000    0.0000 C   0  0
   -1.2990   -5.2500    0.0000 C   0  0
   -2.5981   -6.0000    0.0000 C   0  0
   -3.8971   -5.2500    0.0000 C   0  0  1  0  0  0
   -5.1961   -6.0000    0.0000 O   0  0
   -3.8971   -3.7500    0.0000 C   0  0
   -3.8617   -2.2504    0.0000 C   0  0
   -5.1782   -4.5303    0.0000 C   0  0
   -2.5981   -3.0000    0.0000 C   0  0  1  0  0  0
   -2.5981   -1.5000    0.0000 C   0  0
  1  2  1  0
  2  3  1  0
  3  4  2  0
  4  5  1  0
  5  6  1  0
  6  7  2  0
  7  8  1  0
  8  9  2  0
  9 10  1  0
 10 11  1  0
 11 12  1  0
 10 13  2  0
 13 14  1  0
 14 15  1  0
 15 16  1  0
 16 17  2  0
 17 18  1  0
 17 19  1  0
 19 20  1  0
 20 21  1  0
 21 22  2  0
 22 23  1  0
 22 24  1  0
 14 25  2  0
 25 26  1  0
 26 27  1  0
 27 13  1  0
 27 28  2  0
 28  8  1  0
  5 29  2  0
 29 30  1  0
 30 31  2  0
 31  3  1  0
 31 32  1  0
 32 33  1  0
 33 34  1  1
 33 35  1  0
 35 36  1  0
 36 37  1  0
 37 38  1  1
 37 39  1  0
 39 40  1  0
 39 41  1  0
 39 42  1  0
 42 33  1  0
 42 43  1  1
 43 30  1  0
M  END
> <Smiles>
COc1cc(/C=C/c2cc(OC)c3c(C/C=C(\C)CCC=C(C)C)c[nH]c3c2)cc2c1O[C@]1(C)CC[C@@H](O)C(C)(C)[C@H]1C2

> <ID>
CHEMBL3233618

> <standard_value>
147.91

> <IC50_uM>
0.14791

> <Activity>
Yes

> <pIC50>
6.830002463

> <BCI>
1

$$$$

  SciTegic03012415362D

 34 38  0  0  0  0            999 V2000
    3.8983   -0.7459    0.0000 C   0  0
    2.6003   -1.4977    0.0000 O   0  0
    1.2990   -0.7500    0.0000 C   0  0
    1.2990    0.7500    0.0000 C   0  0
    0.0000    1.5000    0.0000 C   0  0
    0.0000    3.0000    0.0000 C   0  0
   -1.2991    3.7500    0.0000 C   0  0
   -2.5981    3.0000    0.0000 N   0  0
   -3.8994    3.7477    0.0000 C   0  0
   -5.1981    2.9954    0.0000 C   0  0
   -6.4994    3.7432    0.0000 C   0  0
   -7.7981    2.9909    0.0000 N   0  0
   -9.0998    3.7363    0.0000 C   0  0
  -10.3962    2.9818    0.0000 C   0  0
  -10.3910    1.4818    0.0000 O   0  0
   -9.0894    0.7363    0.0000 C   0  0
   -7.7929    1.4908    0.0000 C   0  0
   -2.5981    1.5000    0.0000 C   0  0
   -3.8971    0.7500    0.0000 O   0  0
   -1.2990    0.7500    0.0000 C   0  0
   -1.2990   -0.7500    0.0000 C   0  0
    0.0000   -1.5000    0.0000 C   0  0
   -0.0031   -3.0008    0.0000 O   0  0
   -1.3032   -3.7490    0.0000 C   0  0
   -0.9876    5.2165    0.0000 C   0  0
   -1.8692    6.4288    0.0000 C   0  0
   -1.2591    7.7991    0.0000 C   0  0
   -2.1408    9.0126    0.0000 O   0  0
    0.2327    7.9559    0.0000 C   0  0
    0.8428    9.3262    0.0000 O   0  0
    1.1144    6.7424    0.0000 C   0  0
    0.5042    5.3733    0.0000 C   0  0
    1.1143    4.0030    0.0000 C   0  0
    2.5815    3.6910    0.0000 O   0  0
  1  2  1  0
  2  3  1  0
  3  4  2  0
  4  5  1  0
  5  6  1  0
  6  7  2  0
  7  8  1  0
  8  9  1  0
  9 10  1  0
 10 11  1  0
 11 12  1  0
 12 13  1  0
 13 14  1  0
 14 15  1  0
 15 16  1  0
 16 17  1  0
 17 12  1  0
  8 18  1  0
 18 19  2  0
 18 20  1  0
 20  5  2  0
 20 21  1  0
 21 22  2  0
 22  3  1  0
 22 23  1  0
 23 24  1  0
  7 25  1  0
 25 26  2  0
 26 27  1  0
 27 28  1  0
 27 29  2  0
 29 30  1  0
 29 31  1  0
 31 32  2  0
 32 25  1  0
 32 33  1  0
 33  6  1  0
 33 34  2  0
M  END
> <Smiles>
COc1cc2c3c(n(CCCN4CCOCC4)c(=O)c2cc1OC)-c1cc(O)c(O)cc1C3=O

> <ID>
CHEMBL2177799

> <standard_value>
148

> <IC50_uM>
0.148

> <Activity>
Yes

> <pIC50>
6.829738285

> <BCI>
1

$$$$

  SciTegic03012415362D

 43 48  0  0  1  0            999 V2000
    5.9843   -1.7144    0.0000 C   0  0
    5.6526   -0.2515    0.0000 O   0  0
    4.2194    0.1938    0.0000 C   0  0
    3.1198   -0.8265    0.0000 C   0  0
    1.6852   -0.3846    0.0000 C   0  0
    1.3514    1.0778    0.0000 C   0  0
    2.4522    2.0983    0.0000 C   0  0
    3.8856    1.6562    0.0000 C   0  0
    4.9837    2.6793    0.0000 O   0  0
    4.6476    4.1420    0.0000 C   0  0
    5.7457    5.1651    0.0000 C   0  0
    5.4096    6.6278    0.0000 C   0  0
    6.5077    7.6509    0.0000 O   0  0
    6.1717    9.1136    0.0000 C   0  0
    4.7367    9.5508    0.0000 C   0  0
    4.3970   11.0130    0.0000 C   0  0
    5.4931   12.0371    0.0000 C   0  0
    6.9288   11.5990    0.0000 C   0  0
    7.2677   10.1377    0.0000 C   0  0
    8.7042    9.7033    0.0000 O   0  0
    9.7988   10.7290    0.0000 C   0  0
    5.3758   13.5325    0.0000 C   0  0
    6.6722   14.2870    0.0000 O   0  0
    4.1335   14.3731    0.0000 N   0  0
    4.1507   15.8734    0.0000 C   0  0
    2.7295   16.3533    0.0000 C   0  0
    3.7624   17.4411    0.0000 F   0  0
    1.2612   16.6603    0.0000 F   0  0
    1.8339   15.1500    0.0000 C   0  0
    2.7017   13.9261    0.0000 C   0  0  1  0  0  0
    2.1585   12.5279    0.0000 C   0  0
    2.9130   11.2314    0.0000 N   0  0
    0.0000    1.7286    0.0000 N   0  0
   -1.3515    1.0777    0.0000 C   0  0
   -1.6852   -0.3847    0.0000 C   0  0  2  0  0  0
   -3.0899   -0.9120    0.0000 C   0  0
   -3.0226   -2.4105    0.0000 C   0  0
   -4.4105   -1.8416    0.0000 F   0  0
   -2.7770   -3.8902    0.0000 F   0  0
   -1.5767   -2.8095    0.0000 C   0  0
   -0.7500   -1.5574    0.0000 N   0  0
    0.7500   -1.5574    0.0000 C   0  0
    1.4008   -2.9088    0.0000 O   0  0
  1  2  1  0
  2  3  1  0
  3  4  2  0
  4  5  1  0
  5  6  2  0
  6  7  1  0
  7  8  2  0
  8  3  1  0
  8  9  1  0
  9 10  1  0
 10 11  1  0
 11 12  1  0
 12 13  1  0
 13 14  1  0
 14 15  2  0
 15 16  1  0
 16 17  2  0
 17 18  1  0
 18 19  2  0
 19 14  1  0
 19 20  1  0
 20 21  1  0
 17 22  1  0
 22 23  2  0
 22 24  1  0
 24 25  1  0
 25 26  1  0
 26 27  1  0
 26 28  1  0
 26 29  1  0
 30 29  1  6
 30 24  1  0
 30 31  1  0
 31 32  2  0
 32 16  1  0
  6 33  1  0
 33 34  2  0
 35 34  1  1
 35 36  1  0
 36 37  1  0
 37 38  1  0
 37 39  1  0
 37 40  1  0
 40 41  1  0
 41 35  1  0
 41 42  1  0
 42  5  1  0
 42 43  2  0
M  END
> <Smiles>
COc1cc2c(cc1OCCCOc1cc3c(cc1OC)C(=O)N1CC(F)(F)C[C@H]1C=N3)N=C[C@@H]1CC(F)(F)CN1C2=O

> <ID>
CHEMBL510024

> <standard_value>
150

> <IC50_uM>
0.15

> <Activity>
Yes

> <pIC50>
6.823908741

> <BCI>
1

$$$$

  SciTegic03012415362D

 31 35  0  0  0  0            999 V2000
    3.8805   -1.4410    0.0000 O   0  0
    2.4133   -1.7530    0.0000 C   0  0
    1.2990   -0.7500    0.0000 C   0  0
    1.2990    0.7500    0.0000 C   0  0
    2.5981    1.5000    0.0000 O   0  0
    0.0000    1.5000    0.0000 C   0  0
   -1.2990    0.7500    0.0000 C   0  0
   -1.2990   -0.7500    0.0000 C   0  0
    0.0000   -1.5000    0.0000 C   0  0
    0.3114   -2.9665    0.0000 C   0  0
    1.8032   -3.1233    0.0000 C   0  0
    2.4135   -4.4923    0.0000 C   0  0
    3.9053   -4.6492    0.0000 C   0  0
    4.5154   -6.0195    0.0000 C   0  0
    3.6337   -7.2330    0.0000 C   0  0
    4.2413   -8.6053    0.0000 N   0  3
    3.3579   -9.8176    0.0000 O   0  0
    5.7328   -8.7647    0.0000 O   0  5
    2.1419   -7.0762    0.0000 C   0  0
    1.5318   -5.7059    0.0000 C   0  0
    0.0400   -5.5491    0.0000 C   0  0
   -0.8417   -6.7626    0.0000 O   0  0
   -0.5701   -4.1788    0.0000 N   0  0
   -2.0630   -4.0243    0.0000 C   0  0
   -2.9439   -5.2394    0.0000 C   0  0
   -4.4368   -5.0850    0.0000 C   0  0
   -5.3177   -6.3001    0.0000 N   0  0
   -6.8049   -6.2870    0.0000 C   0  0
   -7.2640   -7.7150    0.0000 C   0  0
   -6.0478   -8.5929    0.0000 N   0  0
   -4.8370   -7.7076    0.0000 C   0  0
  1  2  2  0
  2  3  1  0
  3  4  2  0
  4  5  1  0
  4  6  1  0
  6  7  2  0
  7  8  1  0
  8  9  2  0
  9  3  1  0
  9 10  1  0
 10 11  2  0
 11  2  1  0
 11 12  1  0
 12 13  2  0
 13 14  1  0
 14 15  2  0
 15 16  1  0
 16 17  2  0
 16 18  1  0
 15 19  1  0
 19 20  2  0
 20 12  1  0
 20 21  1  0
 21 22  2  0
 21 23  1  0
 23 10  1  0
 23 24  1  0
 24 25  1  0
 25 26  1  0
 26 27  1  0
 27 28  1  0
 28 29  2  0
 29 30  1  0
 30 31  2  0
 31 27  1  0
M  CHG  2  16   1  18  -1
M  END
> <Smiles>
Br.O=C1c2c(O)cccc2-c2c1c1ccc([N+](=O)[O-])cc1c(=O)n2CCCn1ccnc1

> <ID>
CHEMBL3422404

> <standard_value>
150

> <IC50_uM>
0.15

> <Activity>
Yes

> <pIC50>
6.823908741

> <BCI>
1

> <RemovedSalts>
HBr

$$$$

  SciTegic03012415362D

 41 44  0  0  1  0            999 V2000
    3.8983   -0.7459    0.0000 C   0  0
    2.6003   -1.4977    0.0000 O   0  0
    1.2990   -0.7500    0.0000 C   0  0
    1.2990    0.7500    0.0000 C   0  0
    0.0000    1.5000    0.0000 C   0  0
   -0.0031    3.0008    0.0000 C   0  0
   -1.3039    3.7494    0.0000 C   0  0
   -1.3070    5.2502    0.0000 C   0  0
   -2.6061    6.0003    0.0000 C   0  0
   -2.6061    7.5003    0.0000 C   0  0
   -3.9052    8.2502    0.0000 O   0  0
   -1.3071    8.2503    0.0000 C   0  0
   -1.3040    9.7511    0.0000 C   0  0
   -0.0032   10.4997    0.0000 C   0  0
   -0.0002   12.0006    0.0000 C   0  0
   -1.2980   12.7528    0.0000 C   0  0
    1.3006   12.7492    0.0000 C   0  0
    1.3036   14.2500    0.0000 C   0  0
    2.6044   14.9986    0.0000 C   0  0
    2.6075   16.4994    0.0000 C   0  0
    3.9076   17.2476    0.0000 C   0  0
    1.3097   17.2516    0.0000 C   0  0
   -0.0080    7.5003    0.0000 C   0  0
    1.2910    8.2504    0.0000 O   0  0
   -0.0080    6.0003    0.0000 C   0  0
   -1.2990    0.7500    0.0000 C   0  0
   -1.2990   -0.7500    0.0000 C   0  0
    0.0000   -1.5000    0.0000 C   0  0
    0.0000   -3.0000    0.0000 O   0  0
   -1.2990   -3.7500    0.0000 C   0  0  2  0  0  0
    0.0000   -4.5000    0.0000 C   0  0
   -1.2990   -5.2500    0.0000 C   0  0
   -2.5981   -6.0000    0.0000 C   0  0  1  0  0  0
   -2.5981   -7.5000    0.0000 O   0  0
   -3.8971   -5.2500    0.0000 C   0  0  1  0  0  0
   -5.1961   -6.0000    0.0000 O   0  0
   -3.8971   -3.7500    0.0000 C   0  0
   -3.8617   -2.2504    0.0000 C   0  0
   -5.1782   -4.5303    0.0000 C   0  0
   -2.5981   -3.0000    0.0000 C   0  0  1  0  0  0
   -2.5981   -1.5000    0.0000 C   0  0
  1  2  1  0
  2  3  1  0
  3  4  2  0
  4  5  1  0
  5  6  1  0
  6  7  2  0
  7  8  1  0
  8  9  2  0
  9 10  1  0
 10 11  1  0
 10 12  2  0
 12 13  1  0
 13 14  1  0
 14 15  2  0
 15 16  1  0
 15 17  1  0
 17 18  1  0
 18 19  1  0
 19 20  2  0
 20 21  1  0
 20 22  1  0
 12 23  1  0
 23 24  1  0
 23 25  2  0
 25  8  1  0
  5 26  2  0
 26 27  1  0
 27 28  2  0
 28  3  1  0
 28 29  1  0
 29 30  1  0
 30 31  1  1
 30 32  1  0
 32 33  1  0
 33 34  1  1
 33 35  1  0
 35 36  1  1
 35 37  1  0
 37 38  1  0
 37 39  1  0
 37 40  1  0
 40 30  1  0
 40 41  1  1
 41 27  1  0
M  END
> <Smiles>
COc1cc(/C=C/c2cc(O)c(C/C=C(\C)CCC=C(C)C)c(O)c2)cc2c1O[C@]1(C)C[C@@H](O)[C@@H](O)C(C)(C)[C@H]1C2

> <ID>
CHEMBL232243

> <standard_value>
151.36

> <IC50_uM>
0.15136

> <Activity>
Yes

> <pIC50>
6.819988881

> <BCI>
1

$$$$

  SciTegic03012415362D

 26 29  0  0  0  0            999 V2000
    5.0960   -3.6352    0.0000 N   0  0
    4.0146   -4.6747    0.0000 C   0  0
    4.2107   -6.1619    0.0000 N   0  0
    2.8570   -6.8080    0.0000 O   0  0
    1.8242   -5.7201    0.0000 N   0  0
    2.5536   -4.4230    0.0000 C   0  0
    1.8032   -3.1233    0.0000 C   0  0
    2.4133   -1.7530    0.0000 N   0  0
    1.2990   -0.7500    0.0000 C   0  0
    1.2990    0.7500    0.0000 C   0  0
    0.0000    1.5000    0.0000 C   0  0
   -1.2990    0.7500    0.0000 C   0  0
   -1.2990   -0.7500    0.0000 C   0  0
    0.0000   -1.5000    0.0000 C   0  0
    0.3114   -2.9665    0.0000 N   0  0
   -0.6890   -4.0818    0.0000 C   0  0
   -0.2234   -5.5086    0.0000 C   0  0
    1.2443   -5.8182    0.0000 O   0  0
   -1.2256   -6.6258    0.0000 N   0  0
   -0.7600   -8.0526    0.0000 C   0  0
    0.7083   -8.3597    0.0000 C   0  0
    1.1765   -9.7848    0.0000 C   0  0
    0.1764  -10.9028    0.0000 C   0  0
   -1.2918  -10.5957    0.0000 C   0  0
   -1.7600   -9.1707    0.0000 C   0  0
   -3.2283   -8.8637    0.0000 Cl  0  0
  1  2  1  0
  2  3  2  0
  3  4  1  0
  4  5  1  0
  5  6  2  0
  6  2  1  0
  6  7  1  0
  7  8  2  0
  8  9  1  0
  9 10  2  0
 10 11  1  0
 11 12  2  0
 12 13  1  0
 13 14  2  0
 14  9  1  0
 14 15  1  0
 15  7  1  0
 15 16  1  0
 16 17  1  0
 17 18  2  0
 17 19  1  0
 19 20  1  0
 20 21  2  0
 21 22  1  0
 22 23  2  0
 23 24  1  0
 24 25  2  0
 25 20  1  0
 25 26  1  0
M  END
> <Smiles>
Nc1nonc1-c1nc2ccccc2n1CC(=O)Nc1ccccc1Cl

> <ID>
CHEMBL3422177

> <standard_value>
151.36

> <IC50_uM>
0.15136

> <Activity>
Yes

> <pIC50>
6.819988881

> <BCI>
1

$$$$

  SciTegic03012415362D

 45 50  0  0  0  0            999 V2000
    3.8983   -0.7459    0.0000 C   0  0
    2.6003   -1.4977    0.0000 O   0  0
    1.2990   -0.7500    0.0000 C   0  0
    1.2990    0.7500    0.0000 C   0  0
    0.0000    1.5000    0.0000 C   0  0
    0.0000    3.0008    0.0000 C   0  0
   -1.2149    3.8587    0.0000 N   0  0
   -0.7536    5.2860    0.0000 N   0  0
   -1.6377    6.4987    0.0000 C   0  0
   -3.1320    6.4515    0.0000 C   0  0
   -3.9219    7.7267    0.0000 C   0  0
   -3.2125    9.0483    0.0000 C   0  0
   -1.7132    9.0948    0.0000 C   0  0
   -1.0007   10.4157    0.0000 N   0  0
    0.4995   10.4601    0.0000 C   0  0
    1.2871    9.1836    0.0000 O   0  0
    1.2120   11.7810    0.0000 C   0  0
    2.7113   11.8276    0.0000 C   0  0
    3.4207   13.1492    0.0000 C   0  0
    2.6308   14.4244    0.0000 C   0  0
    3.3406   15.7467    0.0000 N   0  0
    4.8398   15.7956    0.0000 C   0  0
    5.5472   17.1184    0.0000 C   0  0
    4.7553   18.3923    0.0000 O   0  0
    3.2561   18.3435    0.0000 C   0  0
    2.5488   17.0207    0.0000 C   0  0
    1.1315   14.3780    0.0000 C   0  0
    0.3412   15.6538    0.0000 C   0  0
    1.0498   16.9759    0.0000 F   0  0
   -1.1580   15.6069    0.0000 F   0  0
   -0.4492   16.9287    0.0000 F   0  0
    0.4221   13.0563    0.0000 C   0  0
   -0.9233    7.8196    0.0000 C   0  0
    0.7463    5.2884    0.0000 C   0  0
    1.2121    3.8625    0.0000 C   0  0
    2.6374    3.3926    0.0000 C   0  0
    3.0562    1.9577    0.0000 C   0  0
    4.5135    1.6025    0.0000 C   0  0
    5.5498    2.6871    0.0000 N   0  0
    5.1286    4.1268    0.0000 C   0  0
    3.6713    4.4819    0.0000 C   0  0
   -1.2990    0.7500    0.0000 C   0  0
   -1.2990   -0.7500    0.0000 C   0  0
    0.0000   -1.5000    0.0000 C   0  0
    0.0000   -3.0000    0.0000 Cl  0  0
  1  2  1  0
  2  3  1  0
  3  4  2  0
  4  5  1  0
  5  6  1  0
  6  7  2  0
  7  8  1  0
  8  9  1  0
  9 10  2  0
 10 11  1  0
 11 12  2  0
 12 13  1  0
 13 14  1  0
 14 15  1  0
 15 16  2  0
 15 17  1  0
 17 18  2  0
 18 19  1  0
 19 20  2  0
 20 21  1  0
 21 22  1  0
 22 23  1  0
 23 24  1  0
 24 25  1  0
 25 26  1  0
 26 21  1  0
 20 27  1  0
 27 28  1  0
 28 29  1  0
 28 30  1  0
 28 31  1  0
 27 32  2  0
 32 17  1  0
 13 33  2  0
 33  9  1  0
  8 34  1  0
 34 35  2  0
 35  6  1  0
 35 36  1  0
 36 37  2  0
 37 38  1  0
 38 39  2  0
 39 40  1  0
 40 41  2  0
 41 36  1  0
  5 42  2  0
 42 43  1  0
 43 44  2  0
 44  3  1  0
 44 45  1  0
M  END
> <Smiles>
COc1cc(-c2nn(-c3cccc(NC(=O)c4ccc(N5CCOCC5)c(C(F)(F)F)c4)c3)cc2-c2ccncc2)ccc1Cl

> <ID>
CHEMBL2441796

> <standard_value>
153

> <IC50_uM>
0.153

> <Activity>
Yes

> <pIC50>
6.815308569

> <BCI>
1

$$$$

  SciTegic03012415362D

 41 44  0  0  1  0            999 V2000
    3.8892   -8.2560    0.0000 C   0  0
    5.1893   -7.5079    0.0000 O   0  0
    5.1924   -6.0070    0.0000 C   0  0
    3.8934   -5.2570    0.0000 C   0  0
    3.8933   -3.7570    0.0000 C   0  0
    2.5951   -3.0039    0.0000 C   0  0
    2.5973   -1.5031    0.0000 C   0  0
    1.2990   -0.7500    0.0000 C   0  0
    1.2990    0.7500    0.0000 C   0  0
    0.0000    1.5000    0.0000 C   0  0
   -1.2990    0.7500    0.0000 C   0  0
   -1.2990   -0.7500    0.0000 C   0  0
   -2.5972   -1.5031    0.0000 O   0  0
   -2.5951   -3.0031    0.0000 C   0  0
    0.0000   -1.5000    0.0000 C   0  0
   -2.5981    1.5000    0.0000 O   0  0
   -2.5981    3.0000    0.0000 C   0  0  2  0  0  0
   -3.8971    2.2500    0.0000 C   0  0
   -3.8971    3.7500    0.0000 C   0  0
   -3.8971    5.2500    0.0000 C   0  0
   -2.5981    6.0000    0.0000 C   0  0  1  0  0  0
   -2.5981    7.5000    0.0000 O   0  0
   -1.2991    5.2500    0.0000 C   0  0
   -0.0181    4.4695    0.0000 C   0  0
   -1.3343    6.7496    0.0000 C   0  0
   -1.2991    3.7500    0.0000 C   0  0  1  0  0  0
    0.0000    3.0000    0.0000 C   0  0
    5.1925   -3.0070    0.0000 C   0  0
    6.4915   -3.7571    0.0000 C   0  0
    7.7906   -3.0071    0.0000 O   0  0
    6.4915   -5.2571    0.0000 C   0  0
    7.7897   -6.0102    0.0000 C   0  0
    7.7875   -7.5110    0.0000 C   0  0
    9.0857   -8.2641    0.0000 C   0  0
   10.3860   -7.5164    0.0000 C   0  0
    9.0835   -9.7650    0.0000 C   0  0
   10.3817  -10.5181    0.0000 C   0  0
   10.3795  -12.0189    0.0000 C   0  0
   11.6777  -12.7720    0.0000 C   0  0
   11.6756  -14.2720    0.0000 C   0  0
   12.9781  -12.0243    0.0000 C   0  0
  1  2  1  0
  2  3  1  0
  3  4  2  0
  4  5  1  0
  5  6  1  0
  6  7  2  0
  7  8  1  0
  8  9  2  0
  9 10  1  0
 10 11  2  0
 11 12  1  0
 12 13  1  0
 13 14  1  0
 12 15  2  0
 15  8  1  0
 11 16  1  0
 16 17  1  0
 17 18  1  1
 17 19  1  0
 19 20  1  0
 20 21  1  0
 21 22  1  1
 21 23  1  0
 23 24  1  0
 23 25  1  0
 23 26  1  0
 26 17  1  0
 26 27  1  1
 27 10  1  0
  5 28  2  0
 28 29  1  0
 29 30  1  0
 29 31  2  0
 31  3  1  0
 31 32  1  0
 32 33  1  0
 33 34  2  0
 34 35  1  0
 34 36  1  0
 36 37  1  0
 37 38  1  0
 38 39  2  0
 39 40  1  0
 39 41  1  0
M  END
> <Smiles>
COc1cc(/C=C/c2cc3c(c(OC)c2)O[C@]2(C)CC[C@@H](O)C(C)(C)[C@H]2C3)cc(O)c1C/C=C(\C)CCC=C(C)C

> <ID>
CHEMBL1927855

> <standard_value>
154.88

> <IC50_uM>
0.15488

> <Activity>
Yes

> <pIC50>
6.81000466

> <BCI>
1

$$$$

  SciTegic03012415362D

 47 54  0  0  0  0            999 V2000
    3.8805   -1.4410    0.0000 O   0  0
    2.4133   -1.7530    0.0000 C   0  0
    1.2990   -0.7500    0.0000 C   0  0
    1.2990    0.7500    0.0000 C   0  0
    0.0000    1.5000    0.0000 C   0  0
   -1.2990    0.7500    0.0000 C   0  0
   -1.2990   -0.7500    0.0000 C   0  0
    0.0000   -1.5000    0.0000 C   0  0
    0.3114   -2.9665    0.0000 C   0  0
    1.8032   -3.1233    0.0000 C   0  0
    2.4135   -4.4923    0.0000 C   0  0
    3.9053   -4.6492    0.0000 C   0  0
    4.5154   -6.0195    0.0000 C   0  0
    3.6337   -7.2330    0.0000 C   0  0
    2.1419   -7.0762    0.0000 C   0  0
    1.5318   -5.7059    0.0000 C   0  0
    0.0400   -5.5491    0.0000 C   0  0
   -0.8417   -6.7626    0.0000 O   0  0
   -0.5701   -4.1788    0.0000 N   0  0
   -2.0630   -4.0243    0.0000 C   0  0
   -2.9439   -5.2394    0.0000 C   0  0
   -4.4368   -5.0850    0.0000 N   0  0
   -5.3177   -6.3001    0.0000 C   0  0
   -6.8105   -6.1457    0.0000 C   0  0
   -7.6915   -7.3608    0.0000 C   0  0
   -9.1843   -7.2064    0.0000 N   0  0
  -10.0653   -8.4214    0.0000 C   0  0
  -11.5581   -8.2670    0.0000 C   0  0
  -12.4391   -9.4821    0.0000 N   0  0
  -13.9313   -9.3300    0.0000 C   0  0
  -14.8093  -10.5462    0.0000 C   0  0
  -14.1950  -11.9146    0.0000 C   0  0
  -15.0730  -13.1308    0.0000 C   0  0
  -14.4587  -14.4993    0.0000 C   0  0
  -12.9665  -14.6515    0.0000 C   0  0
  -12.0885  -13.4353    0.0000 C   0  0
  -12.7028  -12.0669    0.0000 C   0  0
  -11.8248  -10.8507    0.0000 C   0  0
  -10.3326  -11.0029    0.0000 O   0  0
  -16.2366  -10.0875    0.0000 C   0  0
  -17.4474  -10.9730    0.0000 O   0  0
  -16.2412   -8.5875    0.0000 C   0  0
  -17.3586   -7.5884    0.0000 C   0  0
  -17.0512   -6.1202    0.0000 C   0  0
  -15.6260   -5.6524    0.0000 C   0  0
  -14.5083   -6.6527    0.0000 C   0  0
  -14.8160   -8.1196    0.0000 C   0  0
  1  2  2  0
  2  3  1  0
  3  4  2  0
  4  5  1  0
  5  6  2  0
  6  7  1  0
  7  8  2  0
  8  3  1  0
  8  9  1  0
  9 10  2  0
 10  2  1  0
 10 11  1  0
 11 12  2  0
 12 13  1  0
 13 14  2  0
 14 15  1  0
 15 16  2  0
 16 11  1  0
 16 17  1  0
 17 18  2  0
 17 19  1  0
 19  9  1  0
 19 20  1  0
 20 21  1  0
 21 22  1  0
 22 23  1  0
 23 24  1  0
 24 25  1  0
 25 26  1  0
 26 27  1  0
 27 28  1  0
 28 29  1  0
 29 30  1  0
 30 31  2  0
 31 32  1  0
 32 33  2  0
 33 34  1  0
 34 35  2  0
 35 36  1  0
 36 37  2  0
 37 32  1  0
 37 38  1  0
 38 29  1  0
 38 39  2  0
 31 40  1  0
 40 41  2  0
 40 42  1  0
 42 43  2  0
 43 44  1  0
 44 45  2  0
 45 46  1  0
 46 47  2  0
 47 42  1  0
 47 30  1  0
M  END
> <Smiles>
O=C1c2ccccc2-c2c1c1ccccc1c(=O)n2CCNCCCNCCn1c2c(c3ccccc3c1=O)C(=O)c1ccccc1-2

> <ID>
CHEMBL376751

> <standard_value>
155

> <IC50_uM>
0.155

> <Activity>
Yes

> <pIC50>
6.809668302

> <BCI>
1

$$$$

  SciTegic03012415362D

 20 22  0  0  0  0            999 V2000
    4.1812   -6.4256    0.0000 Cl  0  0
    3.1827   -7.5450    0.0000 C   0  0
    1.7131   -7.2408    0.0000 C   0  0
    0.7130   -8.3588    0.0000 C   0  0
   -0.7552   -8.0517    0.0000 C   0  0
   -1.2234   -6.6267    0.0000 C   0  0
   -0.2234   -5.5086    0.0000 C   0  0
   -0.6890   -4.0818    0.0000 C   0  0
    0.3114   -2.9665    0.0000 N   0  0
    1.8032   -3.1233    0.0000 C   0  0
    2.4133   -1.7530    0.0000 N   0  0
    1.2990   -0.7500    0.0000 C   0  0
    1.2990    0.7500    0.0000 N   0  0
    0.0000    1.5000    0.0000 C   0  0
    0.0000    3.0000    0.0000 Cl  0  0
   -1.2990    0.7500    0.0000 N   0  0
   -1.2990   -0.7500    0.0000 C   0  0
   -2.5981   -1.5000    0.0000 Cl  0  0
    0.0000   -1.5000    0.0000 C   0  0
    1.2449   -5.8157    0.0000 C   0  0
  1  2  1  0
  2  3  1  0
  3  4  2  0
  4  5  1  0
  5  6  2  0
  6  7  1  0
  7  8  1  0
  8  9  1  0
  9 10  1  0
 10 11  2  0
 11 12  1  0
 12 13  2  0
 13 14  1  0
 14 15  1  0
 14 16  2  0
 16 17  1  0
 17 18  1  0
 17 19  2  0
 19 12  1  0
 19  9  1  0
  7 20  2  0
 20  3  1  0
M  END
> <Smiles>
ClCc1cccc(Cn2cnc3nc(Cl)nc(Cl)c32)c1

> <ID>
CHEMBL2262431

> <standard_value>
160

> <IC50_uM>
0.16

> <Activity>
Yes

> <pIC50>
6.795880017

> <BCI>
1

$$$$

  SciTegic03012415362D

 23 25  0  0  0  0            999 V2000
    4.6478    4.1412    0.0000 C   0  0
    4.9837    2.6793    0.0000 O   0  0
    3.8856    1.6562    0.0000 C   0  0
    4.2194    0.1938    0.0000 C   0  0
    3.1198   -0.8265    0.0000 C   0  0
    1.6852   -0.3846    0.0000 C   0  0
    1.3514    1.0778    0.0000 C   0  0
    2.4522    2.0983    0.0000 C   0  0
    0.0000    1.7286    0.0000 C   0  0
   -1.3515    1.0777    0.0000 O   0  0
   -1.6852   -0.3847    0.0000 C   0  0
   -0.7500   -1.5574    0.0000 C   0  0
   -1.5000   -2.8577    0.0000 C   0  0
   -0.7500   -4.1567    0.0000 C   0  0
   -1.5031   -5.4549    0.0000 O   0  0
   -3.0031   -5.4528    0.0000 C   0  0
    0.7500   -4.1567    0.0000 C   0  0
    1.5031   -5.4549    0.0000 O   0  0
    3.0031   -5.4528    0.0000 C   0  0
    1.5000   -2.8577    0.0000 C   0  0
    3.0008   -2.8614    0.0000 O   0  0
    3.7485   -4.1618    0.0000 C   0  0
    0.7500   -1.5574    0.0000 C   0  0  3  0  0  0
  1  2  1  0
  2  3  1  0
  3  4  2  0
  4  5  1  0
  5  6  2  0
  6  7  1  0
  7  8  2  0
  8  3  1  0
  7  9  1  0
  9 10  1  0
 10 11  1  0
 11 12  1  0
 12 13  2  0
 13 14  1  0
 14 15  1  0
 15 16  1  0
 14 17  2  0
 17 18  1  0
 18 19  1  0
 17 20  1  0
 20 21  1  0
 21 22  1  0
 20 23  2  0
 23 12  1  4
 23  6  1  0
M  END
> <Smiles>
COc1ccc2c(c1)COCc1cc(OC)c(OC)c(OC)c1-2

> <ID>
CHEMBL4087065

> <standard_value>
160

> <IC50_uM>
0.16

> <Activity>
Yes

> <pIC50>
6.795880017

> <BCI>
1

$$$$

  SciTegic03012415362D

 22 24  0  0  0  0            999 V2000
    2.5951   -3.0031    0.0000 C   0  0
    2.5973   -1.5031    0.0000 O   0  0
    1.2990   -0.7500    0.0000 C   0  0
    1.2990    0.7500    0.0000 C   0  0
    0.0000    1.5000    0.0000 C   0  0
   -1.2990    0.7500    0.0000 C   0  0
   -2.5987    1.5004    0.0000 C   0  0
   -2.7390    2.9810    0.0000 C   0  0
   -4.2067    3.2905    0.0000 C   0  0
   -4.9546    1.9903    0.0000 C   0  0
   -6.4469    1.8311    0.0000 C   0  0
   -7.4153    2.9701    0.0000 C   0  0
   -8.8906    2.6991    0.0000 C   0  0
   -9.3937    1.2860    0.0000 C   0  0
  -10.8692    1.0118    0.0000 C   0  0
  -11.3703   -0.4020    0.0000 N   0  0
  -11.8435    2.1523    0.0000 N   0  0
   -8.4213    0.1438    0.0000 C   0  0
   -6.9460    0.4147    0.0000 C   0  0
   -3.9492    0.8772    0.0000 S   0  0
   -1.2990   -0.7500    0.0000 C   0  0
    0.0000   -1.5000    0.0000 C   0  0
  1  2  1  0
  2  3  1  0
  3  4  2  0
  4  5  1  0
  5  6  2  0
  6  7  1  0
  7  8  2  0
  8  9  1  0
  9 10  2  0
 10 11  1  0
 11 12  2  0
 12 13  1  0
 13 14  2  0
 14 15  1  0
 15 16  2  0
 15 17  1  0
 14 18  1  0
 18 19  2  0
 19 11  1  0
 10 20  1  0
 20  7  1  0
  6 21  1  0
 21 22  2  0
 22  3  1  0
M  END
> <Smiles>
COc1ccc(-c2ccc(-c3ccc(C(=N)N)cc3)s2)cc1

> <ID>
CHEMBL4089122

> <standard_value>
160

> <IC50_uM>
0.16

> <Activity>
Yes

> <pIC50>
6.795880017

> <BCI>
1

$$$$

  SciTegic03012415362D

 25 28  0  0  0  0            999 V2000
    3.8801   -8.2575    0.0000 C   0  0
    2.5826   -7.5048    0.0000 O   0  0
    2.5847   -6.0040    0.0000 C   0  0
    3.8864   -5.2585    0.0000 C   0  0
    3.8915   -3.7585    0.0000 C   0  0
    2.5951   -3.0039    0.0000 C   0  0
    2.5973   -1.5031    0.0000 C   0  0
    3.8976   -0.7553    0.0000 O   0  0
    1.2990   -0.7500    0.0000 N   0  0
    1.2990    0.7500    0.0000 C   0  0
    2.5981    1.5000    0.0000 C   0  0
    2.5981    3.0000    0.0000 C   0  0
    1.2990    3.7500    0.0000 C   0  0
    0.0000    3.0000    0.0000 C   0  0
    0.0000    1.5000    0.0000 C   0  0
   -1.2990    0.7500    0.0000 S   0  0
   -1.2990   -0.7500    0.0000 C   0  0
   -2.5981   -1.5000    0.0000 C   0  0
   -2.5981   -3.0000    0.0000 C   0  0
   -1.2990   -3.7500    0.0000 C   0  0
    0.0000   -3.0000    0.0000 C   0  0
    0.0000   -1.5000    0.0000 C   0  0
    1.2935   -3.7495    0.0000 C   0  0
    1.2883   -5.2495    0.0000 C   0  0
   -0.0133   -5.9950    0.0000 N   0  0
  1  2  1  0
  2  3  1  0
  3  4  2  0
  4  5  1  0
  5  6  2  0
  6  7  1  0
  7  8  2  0
  7  9  1  0
  9 10  1  0
 10 11  2  0
 11 12  1  0
 12 13  2  0
 13 14  1  0
 14 15  2  0
 15 10  1  0
 15 16  1  0
 16 17  1  0
 17 18  2  0
 18 19  1  0
 19 20  2  0
 20 21  1  0
 21 22  2  0
 22 17  1  0
 22  9  1  0
  6 23  1  0
 23 24  2  0
 24  3  1  0
 24 25  1  0
M  END
> <Smiles>
COc1ccc(C(=O)N2c3ccccc3Sc3ccccc32)cc1N

> <ID>
CHEMBL2337946

> <standard_value>
164

> <IC50_uM>
0.164

> <Activity>
Yes

> <pIC50>
6.785156152

> <BCI>
1

$$$$

  SciTegic03012415362D

 25 26  0  0  0  0            999 V2000
    3.8983   -0.7459    0.0000 C   0  0
    2.6003   -1.4977    0.0000 O   0  0
    1.2990   -0.7500    0.0000 C   0  0
    1.2990    0.7500    0.0000 C   0  0
    0.0000    1.5000    0.0000 C   0  0
    0.0031    3.0008    0.0000 C   0  0
   -1.2947    3.7531    0.0000 O   0  0
    1.3039    3.7494    0.0000 C   0  0
    1.3092    5.2494    0.0000 C   0  0
    2.6108    5.9949    0.0000 C   0  0
    2.6129    7.4958    0.0000 O   0  0
    1.3154    8.2484    0.0000 C   0  0
    3.9072    5.2405    0.0000 C   0  0
    5.2111    5.9837    0.0000 O   0  0
    6.5065    5.2274    0.0000 C   0  0
    3.9020    3.7405    0.0000 C   0  0
    5.1976    2.9829    0.0000 O   0  0
    5.1903    1.4829    0.0000 C   0  0
    2.6004    2.9949    0.0000 C   0  0
   -1.2990    0.7500    0.0000 C   0  0
   -2.6003    1.4977    0.0000 O   0  0
   -3.8983    0.7459    0.0000 C   0  0
   -1.2990   -0.7500    0.0000 C   0  0
    0.0000   -1.5000    0.0000 C   0  0
    0.0000   -3.0000    0.0000 F   0  0
  1  2  1  0
  2  3  1  0
  3  4  2  0
  4  5  1  0
  5  6  1  0
  6  7  2  0
  6  8  1  0
  8  9  2  0
  9 10  1  0
 10 11  1  0
 11 12  1  0
 10 13  2  0
 13 14  1  0
 14 15  1  0
 13 16  1  0
 16 17  1  0
 17 18  1  0
 16 19  2  0
 19  8  1  0
  5 20  2  0
 20 21  1  0
 21 22  1  0
 20 23  1  0
 23 24  2  0
 24  3  1  0
 24 25  1  0
M  END
> <Smiles>
COc1cc(C(=O)c2cc(OC)c(OC)c(OC)c2)c(OC)cc1F

> <ID>
CHEMBL2386779

> <standard_value>
164

> <IC50_uM>
0.164

> <Activity>
Yes

> <pIC50>
6.785156152

> <BCI>
1

$$$$

  SciTegic03012415362D

 25 27  0  0  0  0            999 V2000
    2.5951   -3.0031    0.0000 C   0  0
    2.5973   -1.5031    0.0000 O   0  0
    1.2990   -0.7500    0.0000 C   0  0
    1.2990    0.7500    0.0000 C   0  0
    0.0000    1.5000    0.0000 C   0  0
   -0.0031    3.0008    0.0000 O   0  0
   -1.3032    3.7490    0.0000 C   0  0
   -1.2990    0.7500    0.0000 C   0  0
   -1.2990   -0.7500    0.0000 C   0  0
   -2.5987   -1.5004    0.0000 C   0  0
   -3.9511   -0.8815    0.0000 C   0  0
   -4.9530   -1.9978    0.0000 C   0  0
   -4.2010   -3.2957    0.0000 C   0  0
   -4.8092   -4.6676    0.0000 C   0  0
   -6.2798   -4.9368    0.0000 C   0  0
   -6.7828   -6.3500    0.0000 C   0  0
   -5.8105   -7.4922    0.0000 C   0  0
   -6.3167   -8.9050    0.0000 C   0  0
   -7.7924   -9.1739    0.0000 N   0  0
   -5.3464  -10.0489    0.0000 N   0  0
   -4.3352   -7.2212    0.0000 C   0  0
   -3.3629   -8.3634    0.0000 F   0  0
   -3.8322   -5.8081    0.0000 C   0  0
   -2.7343   -2.9815    0.0000 S   0  0
    0.0000   -1.5000    0.0000 C   0  0
  1  2  1  0
  2  3  1  0
  3  4  2  0
  4  5  1  0
  5  6  1  0
  6  7  1  0
  5  8  2  0
  8  9  1  0
  9 10  1  0
 10 11  2  0
 11 12  1  0
 12 13  2  0
 13 14  1  0
 14 15  2  0
 15 16  1  0
 16 17  2  0
 17 18  1  0
 18 19  2  0
 18 20  1  0
 17 21  1  0
 21 22  1  0
 21 23  2  0
 23 14  1  0
 13 24  1  0
 24 10  1  0
  9 25  2  0
 25  3  1  0
M  END
> <Smiles>
COc1cc(OC)cc(-c2ccc(-c3ccc(C(=N)N)c(F)c3)s2)c1

> <ID>
CHEMBL4097775

> <standard_value>
165

> <IC50_uM>
0.165

> <Activity>
Yes

> <pIC50>
6.782516056

> <BCI>
1

$$$$

  SciTegic03012415362D

 25 28  0  0  0  0            999 V2000
    4.0592   -9.6125    0.0000 C   0  0
    4.8091   -8.3134    0.0000 C   0  0
    6.3091   -8.3134    0.0000 C   0  0
    7.0591   -7.0143    0.0000 C   0  0
    6.3090   -5.7153    0.0000 C   0  0
    4.8090   -5.7153    0.0000 C   0  0
    4.0559   -4.4171    0.0000 N   0  0
    2.5551   -4.4192    0.0000 C   0  0
    1.8073   -5.7196    0.0000 O   0  0
    1.8032   -3.1233    0.0000 C   0  0
    2.4133   -1.7530    0.0000 S   0  0
    1.2990   -0.7500    0.0000 C   0  0
    1.2990    0.7500    0.0000 N   0  0
    0.0000    1.5000    0.0000 C   0  0
   -1.2990    0.7500    0.0000 C   0  0
   -1.2990   -0.7500    0.0000 C   0  0
    0.0000   -1.5000    0.0000 C   0  0
    0.3114   -2.9665    0.0000 C   0  0
   -0.6923   -4.0811    0.0000 N   0  0
   -2.5981    1.5000    0.0000 C   0  0
   -3.8971    0.7500    0.0000 O   0  0
   -2.5981    3.0000    0.0000 C   0  0
   -1.2991    3.7500    0.0000 C   0  0
    0.0000    3.0000    0.0000 C   0  0
    4.0591   -7.0144    0.0000 C   0  0
  1  2  1  0
  2  3  2  0
  3  4  1  0
  4  5  2  0
  5  6  1  0
  6  7  1  0
  7  8  1  0
  8  9  2  0
  8 10  1  0
 10 11  1  0
 11 12  1  0
 12 13  2  0
 13 14  1  0
 14 15  2  0
 15 16  1  0
 16 17  2  0
 17 12  1  0
 17 18  1  0
 18 10  2  0
 18 19  1  0
 15 20  1  0
 20 21  2  0
 20 22  1  0
 22 23  1  0
 23 24  1  0
 24 14  1  0
  6 25  2  0
 25  2  1  0
M  END
> <Smiles>
Cc1cccc(NC(=O)c2sc3nc4c(cc3c2N)C(=O)CCC4)c1

> <ID>
CHEMBL4776111

> <standard_value>
167

> <IC50_uM>
0.167

> <Activity>
Yes

> <pIC50>
6.777283529

> <BCI>
1

$$$$

  SciTegic03012415362D

 55 62  0  0  0  0            999 V2000
    3.8983   -0.7459    0.0000 C   0  0
    2.6003   -1.4977    0.0000 O   0  0
    1.2990   -0.7500    0.0000 C   0  0
    1.2990    0.7500    0.0000 C   0  0
    0.0000    1.5000    0.0000 C   0  0
    0.0000    3.0000    0.0000 C   0  0
   -1.2991    3.7500    0.0000 C   0  0
   -2.5981    3.0000    0.0000 N   0  0
   -3.8994    3.7477    0.0000 C   0  0
   -5.1981    2.9954    0.0000 C   0  0
   -6.4994    3.7432    0.0000 N   0  0
   -7.7981    2.9909    0.0000 C   0  0
   -9.0994    3.7386    0.0000 C   0  0
  -10.3980    2.9864    0.0000 C   0  0
  -11.6993    3.7341    0.0000 N   0  0
  -12.9980    2.9818    0.0000 C   0  0
  -14.2993    3.7295    0.0000 C   0  0
  -15.5980    2.9773    0.0000 N   0  0
  -16.8997    3.7227    0.0000 C   0  0
  -18.1961    2.9682    0.0000 C   0  0
  -18.1909    1.4682    0.0000 C   0  0
  -19.4874    0.7137    0.0000 C   0  0
  -19.4821   -0.7863    0.0000 C   0  0
  -20.7808   -1.5385    0.0000 O   0  0
  -22.0814   -0.7912    0.0000 C   0  0
  -18.1805   -1.5318    0.0000 C   0  0
  -18.1722   -3.0326    0.0000 O   0  0
  -16.8695   -3.7762    0.0000 C   0  0
  -16.8841   -0.7773    0.0000 C   0  0
  -16.8893    0.7227    0.0000 C   0  0
  -15.5929    1.4772    0.0000 C   0  0
  -14.2912    0.7317    0.0000 O   0  0
  -19.3139    3.9673    0.0000 C   0  0
  -20.7800    3.6502    0.0000 O   0  0
  -18.7085    5.3397    0.0000 C   0  0
  -19.3235    6.7067    0.0000 C   0  0
  -18.4460    7.9232    0.0000 C   0  0
  -16.9537    7.7716    0.0000 C   0  0
  -16.3389    6.4034    0.0000 C   0  0
  -17.2162    5.1881    0.0000 C   0  0
   -2.5981    1.5000    0.0000 C   0  0
   -3.8971    0.7500    0.0000 O   0  0
   -1.2990    0.7500    0.0000 C   0  0
   -1.2990   -0.7500    0.0000 C   0  0
    0.0000   -1.5000    0.0000 C   0  0
   -0.0031   -3.0008    0.0000 O   0  0
   -1.3032   -3.7490    0.0000 C   0  0
   -0.9876    5.2165    0.0000 C   0  0
   -1.8692    6.4288    0.0000 C   0  0
   -1.2591    7.7991    0.0000 C   0  0
    0.2327    7.9559    0.0000 C   0  0
    1.1144    6.7424    0.0000 C   0  0
    0.5042    5.3733    0.0000 C   0  0
    1.1143    4.0030    0.0000 C   0  0
    2.5815    3.6910    0.0000 O   0  0
  1  2  1  0
  2  3  1  0
  3  4  2  0
  4  5  1  0
  5  6  1  0
  6  7  2  0
  7  8  1  0
  8  9  1  0
  9 10  1  0
 10 11  1  0
 11 12  1  0
 12 13  1  0
 13 14  1  0
 14 15  1  0
 15 16  1  0
 16 17  1  0
 17 18  1  0
 18 19  1  0
 19 20  2  0
 20 21  1  0
 21 22  2  0
 22 23  1  0
 23 24  1  0
 24 25  1  0
 23 26  2  0
 26 27  1  0
 27 28  1  0
 26 29  1  0
 29 30  2  0
 30 21  1  0
 30 31  1  0
 31 18  1  0
 31 32  2  0
 20 33  1  0
 33 34  2  0
 33 35  1  0
 35 36  2  0
 36 37  1  0
 37 38  2  0
 38 39  1  0
 39 40  2  0
 40 35  1  0
 40 19  1  0
  8 41  1  0
 41 42  2  0
 41 43  1  0
 43  5  2  0
 43 44  1  0
 44 45  2  0
 45  3  1  0
 45 46  1  0
 46 47  1  0
  7 48  1  0
 48 49  2  0
 49 50  1  0
 50 51  2  0
 51 52  1  0
 52 53  2  0
 53 48  1  0
 53 54  1  0
 54  6  1  0
 54 55  2  0
M  END
> <Smiles>
COc1cc2c3c(n(CCNCCCNCCn4c5c(c6cc(OC)c(OC)cc6c4=O)C(=O)c4ccccc4-5)c(=O)c2cc1OC)-c1ccccc1C3=O

> <ID>
CHEMBL268551

> <standard_value>
170

> <IC50_uM>
0.17

> <Activity>
Yes

> <pIC50>
6.769551079

> <BCI>
1

$$$$

  SciTegic03012415362D

 37 42  0  0  1  0            999 V2000
   -0.2823   -5.5001    0.0000 C   0  0
   -0.7300   -4.0685    0.0000 C   0  0  2  0  0  0
   -2.1946   -3.7406    0.0000 C   0  0
   -3.2115   -4.8444    0.0000 C   0  0
   -4.6761   -4.5166    0.0000 C   0  0
   -5.6924   -5.6198    0.0000 O   0  0
    0.2851   -2.9666    0.0000 C   0  0  1  0  0  0
    1.7758   -3.1329    0.0000 C   0  0
    2.3947   -1.7666    0.0000 C   0  0
    1.2990   -0.7500    0.0000 C   0  0  1  0  0  0
    1.2990    0.7500    0.0000 C   0  0  2  0  0  0
    2.5981    1.5000    0.0000 C   0  0  2  0  0  0
    3.8971    0.7500    0.0000 O   0  0
    2.5981    3.0000    0.0000 C   0  0
    1.2990    3.7500    0.0000 C   0  0  2  0  0  0
    1.2990    5.2500    0.0000 C   0  0
    0.0000    6.0000    0.0000 C   0  0
   -1.2991    5.2500    0.0000 C   0  0
   -1.2991    3.7500    0.0000 C   0  0
    0.0000    3.0000    0.0000 C   0  0  1  0  0  0
   -1.2991    2.2500    0.0000 C   0  0
    0.0000    1.5000    0.0000 C   0  0  1  0  0  0
   -1.2990    0.7500    0.0000 C   0  0
   -1.2990   -0.7500    0.0000 C   0  0  2  0  0  0
   -2.5981   -1.5000    0.0000 O   0  0
    0.0000   -1.5000    0.0000 C   0  0  2  0  0  0
   -1.2212   -2.3711    0.0000 C   0  0
    0.7042    7.3783    0.0000 O   0  0
   -0.0458    8.6773    0.0000 O   0  0
   -1.5458    8.6773    0.0000 C   0  0
   -1.6251   10.2231    0.0000 C   0  0
   -2.9242   10.9730    0.0000 C   0  0
   -4.2232   10.2230    0.0000 C   0  0
   -4.2232    8.7230    0.0000 C   0  0
   -2.9241    7.9730    0.0000 C   0  0
   -2.2958    7.3783    0.0000 O   0  0
   -1.5458    6.0792    0.0000 O   0  0
  2  1  1  6
  2  3  1  0
  3  4  1  0
  4  5  1  0
  5  6  1  0
  2  7  1  0
  7  8  1  6
  8  9  1  0
 10  9  1  6
 11 10  1  1
 11 12  1  0
 12 13  1  1
 12 14  1  0
 15 14  1  1
 15 16  1  0
 16 17  1  0
 17 18  1  0
 18 19  1  0
 19 20  1  0
 20 15  1  0
 20 21  1  6
 20 22  1  0
 22 11  1  0
 22 23  1  6
 23 24  1  0
 24 25  1  1
 24 26  1  0
 26  7  1  0
 26 10  1  0
 26 27  1  6
 17 28  1  0
 28 29  1  0
 29 30  1  0
 30 31  1  0
 31 32  1  0
 32 33  1  0
 33 34  1  0
 34 35  1  0
 35 30  1  0
 30 36  1  0
 36 37  1  0
 37 17  1  0
M  END
> <Smiles>
C[C@H](CCCO)[C@H]1CC[C@H]2[C@@H]3[C@H](O)C[C@@H]4CC5(CC[C@]4(C)[C@H]3C[C@H](O)[C@]12C)OOC1(CCCCC1)OO5

> <ID>
CHEMBL403719

> <standard_value>
170

> <IC50_uM>
0.17

> <Activity>
Yes

> <pIC50>
6.769551079

> <BCI>
1

$$$$

  SciTegic03012415362D

 48 51  0  0  1  0            999 V2000
   -2.4556   -0.6177    0.0000 C   0  0
   -3.4749   -1.7182    0.0000 C   0  0
   -4.9132   -1.4394    0.0000 C   0  0
   -5.5289   -0.0730    0.0000 C   0  0  2  0  0  0
   -7.0187   -0.2470    0.0000 C   0  0
   -5.2400    1.4229    0.0000 C   0  0
   -4.2849    2.6275    0.0000 C   0  0  2  0  0  0
   -5.2499    3.7758    0.0000 C   0  0
   -2.9298    3.3631    0.0000 O   0  0
   -1.3990    3.5270    0.0000 C   0  0
   -0.9329    4.9527    0.0000 O   0  0
   -0.2777    2.5059    0.0000 C   0  0
    0.0898    1.0584    0.0000 C   0  0  2  0  0  0
   -1.3708    0.7139    0.0000 C   0  0
   -1.9564   -0.6591    0.0000 C   0  0
   -3.4457   -0.8383    0.0000 C   0  0
   -4.3454    0.3619    0.0000 C   0  0
   -5.8347    0.1828    0.0000 O   0  0
   -3.7559    1.7412    0.0000 C   0  0
   -2.2667    1.9203    0.0000 C   0  0
    1.6248    1.1201    0.0000 N   0  0
    2.5418   -0.0797    0.0000 C   0  0
    4.0251    0.1434    0.0000 O   0  0
    2.0301   -1.4637    0.0000 C   0  0  1  0  0  0
    0.5518   -1.7213    0.0000 C   0  0
   -0.4112   -0.5701    0.0000 C   0  0
   -1.8934   -0.6918    0.0000 C   0  0
   -2.6805   -1.9687    0.0000 Br  0  0
   -2.4557    0.6989    0.0000 N   0  0
   -1.3073    1.6626    0.0000 C   0  0
   -1.2552    3.1617    0.0000 C   0  0
    0.0690    3.8662    0.0000 C   0  0
    1.3413    3.0716    0.0000 C   0  0
    1.2893    1.5725    0.0000 C   0  0
   -0.0350    0.8680    0.0000 C   0  0
    3.0243   -2.6051    0.0000 N   0  0
    4.5013   -2.8664    0.0000 C   0  0
    2.4925   -3.9813    0.0000 C   0  0
    3.3927   -5.1811    0.0000 O   0  0
    1.0350   -4.1059    0.0000 C   0  0  2  0  0  0
    0.7860   -2.6232    0.0000 C   0  0
    1.9422   -1.6677    0.0000 O   0  0
    0.1835   -5.3026    0.0000 N   0  0
   -1.2591   -5.0392    0.0000 C   0  0
   -2.2671   -6.1501    0.0000 O   0  0
   -1.6711   -3.5941    0.0000 C   0  0  1  0  0  0
   -0.6018   -2.5421    0.0000 C   0  0
   -3.0765   -3.1686    0.0000 C   0  0
  1  2  1  0
  2  3  2  0
  3  4  1  0
  4  5  1  6
  4  6  1  0
  6  7  1  0
  7  8  1  6
  7  9  1  0
  9 10  1  0
 10 11  2  0
 10 12  1  0
 12 13  1  0
 13 14  1  1
 14 15  2  0
 15 16  1  0
 16 17  2  0
 17 18  1  0
 17 19  1  0
 19 20  2  0
 20 14  1  0
 13 21  1  0
 21 22  1  0
 22 23  2  0
 22 24  1  0
 24 25  1  6
 25 26  1  0
 26 27  2  0
 27 28  1  0
 27 29  1  0
 29 30  1  0
 30 31  2  0
 31 32  1  0
 32 33  2  0
 33 34  1  0
 34 35  2  0
 35 26  1  0
 35 30  1  0
 24 36  1  0
 36 37  1  0
 36 38  1  0
 38 39  2  0
 38 40  1  0
 40 41  1  1
 41 42  1  0
 40 43  1  0
 43 44  1  0
 44 45  2  0
 44 46  1  0
 46 47  1  6
 46 48  1  0
 48  2  1  0
M  END
> <Smiles>
C/C1=C\[C@H](C)C[C@H](C)OC(=O)C[C@H](c2ccc(O)cc2)NC(=O)[C@@H](Cc2c(Br)[nH]c3ccccc23)N(C)C(=O)[C@H](CO)NC(=O)[C@@H](C)C1

> <ID>
CHEMBL1165575

> <standard_value>
170

> <IC50_uM>
0.17

> <Activity>
Yes

> <pIC50>
6.769551079

> <BCI>
1

$$$$

  SciTegic03012415362D

 37 41  0  0  1  0            999 V2000
    1.8479    4.6057    0.0000 C   0  0
    2.3109    3.1790    0.0000 C   0  0
    3.7375    2.7155    0.0000 C   0  0
    4.9510    3.5971    0.0000 O   0  0
    3.7375    1.2155    0.0000 O   0  0
    2.3083    0.7500    0.0000 C   0  0  1  0  0  0
    1.4266    1.9635    0.0000 C   0  0  1  0  0  0
    0.0000    2.4271    0.0000 C   0  0
   -1.4266    1.9635    0.0000 C   0  0
   -2.3083    0.7500    0.0000 C   0  0
   -3.7419    1.2126    0.0000 C   0  0
   -4.8559    0.2068    0.0000 N   0  0
   -6.3079    0.5283    0.0000 C   0  0
   -7.0535   -0.7733    0.0000 C   0  0
   -8.5455   -0.9353    0.0000 C   0  0
   -9.5160    0.2019    0.0000 C   0  0
  -10.9908   -0.0717    0.0000 C   0  0
  -11.9657    1.0693    0.0000 C   0  0
  -11.4662    2.4837    0.0000 F   0  0
  -13.4405    0.7952    0.0000 F   0  0
  -12.9407    2.2092    0.0000 F   0  0
  -11.4912   -1.4858    0.0000 C   0  0
  -10.5168   -2.6262    0.0000 C   0  0
  -11.0175   -4.0410    0.0000 C   0  0
  -12.4921   -4.3156    0.0000 F   0  0
  -10.0427   -5.1811    0.0000 F   0  0
  -11.5172   -5.4553    0.0000 F   0  0
   -9.0420   -2.3525    0.0000 C   0  0
   -6.0460   -1.8845    0.0000 N   0  0
   -4.6777   -1.2697    0.0000 N   0  0
   -2.3083   -0.7500    0.0000 C   0  0
   -1.4266   -1.9635    0.0000 C   0  0
    0.0000   -2.4271    0.0000 C   0  0
    1.4266   -1.9635    0.0000 C   0  0  1  0  0  0
    2.8116   -1.3875    0.0000 C   0  0
    2.8750   -2.1886    0.0000 O   0  0
    2.3083   -0.7500    0.0000 C   0  0  1  0  0  0
  1  2  2  0
  2  3  1  0
  3  4  2  0
  3  5  1  0
  6  5  1  6
  6  7  1  0
  7  2  1  0
  7  8  1  1
  8  9  1  0
  9 10  1  0
 10 11  1  0
 11 12  1  0
 12 13  1  0
 13 14  2  0
 14 15  1  0
 15 16  2  0
 16 17  1  0
 17 18  1  0
 18 19  1  0
 18 20  1  0
 18 21  1  0
 17 22  2  0
 22 23  1  0
 23 24  1  0
 24 25  1  0
 24 26  1  0
 24 27  1  0
 23 28  2  0
 28 15  1  0
 14 29  1  0
 29 30  2  0
 30 12  1  0
 10 31  2  0
 31 32  1  0
 32 33  1  0
 33 34  1  0
 34 35  1  1
 34 36  1  0
 37 36  1  6
 37  6  1  0
 37 34  1  0
M  END
> <Smiles>
C=C1C(=O)O[C@H]2[C@H]1CC/C(Cn1cc(-c3cc(C(F)(F)F)cc(C(F)(F)F)c3)nn1)=C\CC[C@@]1(C)O[C@@H]21

> <ID>
CHEMBL4284479

> <standard_value>
170

> <IC50_uM>
0.17

> <Activity>
Yes

> <pIC50>
6.769551079

> <BCI>
1

$$$$

  SciTegic03012415362D

 21 23  0  0  0  0            999 V2000
    2.5951   -3.0031    0.0000 N   0  0
    2.5973   -1.5031    0.0000 C   0  0
    3.8976   -0.7553    0.0000 N   0  0
    1.2990   -0.7500    0.0000 C   0  0
    1.2990    0.7500    0.0000 C   0  0
    0.0000    1.5000    0.0000 C   0  0
   -1.2990    0.7500    0.0000 C   0  0
   -2.5987    1.5004    0.0000 C   0  0
   -2.7390    2.9810    0.0000 C   0  0
   -4.2067    3.2905    0.0000 C   0  0
   -4.9546    1.9903    0.0000 C   0  0
   -6.4469    1.8311    0.0000 C   0  0
   -7.4153    2.9701    0.0000 C   0  0
   -8.8906    2.6991    0.0000 C   0  0
   -9.3937    1.2860    0.0000 C   0  0
  -10.8690    1.0150    0.0000 Cl  0  0
   -8.4213    0.1438    0.0000 C   0  0
   -6.9460    0.4147    0.0000 C   0  0
   -3.9492    0.8772    0.0000 S   0  0
   -1.2990   -0.7500    0.0000 C   0  0
    0.0000   -1.5000    0.0000 C   0  0
  1  2  2  0
  2  3  1  0
  2  4  1  0
  4  5  2  0
  5  6  1  0
  6  7  2  0
  7  8  1  0
  8  9  2  0
  9 10  1  0
 10 11  2  0
 11 12  1  0
 12 13  2  0
 13 14  1  0
 14 15  2  0
 15 16  1  0
 15 17  1  0
 17 18  2  0
 18 12  1  0
 11 19  1  0
 19  8  1  0
  7 20  1  0
 20 21  2  0
 21  4  1  0
M  END
> <Smiles>
N=C(N)c1ccc(-c2ccc(-c3ccc(Cl)cc3)s2)cc1

> <ID>
CHEMBL4094395

> <standard_value>
171

> <IC50_uM>
0.171

> <Activity>
Yes

> <pIC50>
6.76700389

> <BCI>
1

$$$$

  SciTegic03012415362D

 25 27  0  0  0  0            999 V2000
    2.5951   -3.0031    0.0000 C   0  0
    2.5973   -1.5031    0.0000 O   0  0
    1.2990   -0.7500    0.0000 C   0  0
    1.2990    0.7500    0.0000 C   0  0
    0.0000    1.5000    0.0000 C   0  0
   -1.2990    0.7500    0.0000 C   0  0
   -2.5987    1.5004    0.0000 C   0  0
   -3.9492    0.8772    0.0000 N   0  0
   -4.9546    1.9903    0.0000 O   0  0
   -4.2067    3.2905    0.0000 C   0  0
   -2.7390    2.9810    0.0000 C   0  0
   -1.6193    3.9803    0.0000 C   0  0
   -0.1673    3.6256    0.0000 C   0  0
    0.8689    4.7101    0.0000 C   0  0
    2.3264    4.3518    0.0000 O   0  0
    2.7454    2.9115    0.0000 C   0  0
    0.4478    6.1498    0.0000 C   0  0
    1.4824    7.2371    0.0000 O   0  0
    1.0592    8.6761    0.0000 C   0  0
   -1.0096    6.5049    0.0000 C   0  0
   -1.4339    7.9445    0.0000 O   0  0
   -2.8917    8.2976    0.0000 C   0  0
   -2.0458    5.4204    0.0000 C   0  0
   -1.2990   -0.7500    0.0000 C   0  0
    0.0000   -1.5000    0.0000 C   0  0
  1  2  1  0
  2  3  1  0
  3  4  2  0
  4  5  1  0
  5  6  2  0
  6  7  1  0
  7  8  2  0
  8  9  1  0
  9 10  1  0
 10 11  2  0
 11  7  1  0
 11 12  1  0
 12 13  2  0
 13 14  1  0
 14 15  1  0
 15 16  1  0
 14 17  2  0
 17 18  1  0
 18 19  1  0
 17 20  1  0
 20 21  1  0
 21 22  1  0
 20 23  2  0
 23 12  1  0
  6 24  1  0
 24 25  2  0
 25  3  1  0
M  END
> <Smiles>
COc1ccc(-c2nocc2-c2cc(OC)c(OC)c(OC)c2)cc1

> <ID>
CHEMBL4172358

> <standard_value>
173

> <IC50_uM>
0.173

> <Activity>
Yes

> <pIC50>
6.761953897

> <BCI>
1

$$$$

  SciTegic03012415362D

 29 33  0  0  0  0            999 V2000
    2.5951   -3.0031    0.0000 C   0  0
    2.5973   -1.5031    0.0000 O   0  0
    1.2990   -0.7500    0.0000 C   0  0
    1.2990    0.7500    0.0000 C   0  0
    0.0000    1.5000    0.0000 C   0  0
   -1.2990    0.7500    0.0000 C   0  0
   -1.2990   -0.7500    0.0000 C   0  0
    0.0000   -1.5000    0.0000 C   0  0
   -2.7248   -1.2135    0.0000 C   0  0
   -3.1882   -2.6402    0.0000 O   0  0
   -3.6065    0.0000    0.0000 C   0  0
   -2.7248    1.2135    0.0000 C   0  0
   -3.3339    2.5831    0.0000 N   0  0
   -2.4537    3.7988    0.0000 C   0  0
   -3.0656    5.1692    0.0000 C   0  0
   -2.1854    6.3848    0.0000 C   0  0
   -2.7972    7.7553    0.0000 N   0  0
   -2.0423    9.0367    0.0000 C   0  0
   -3.0494   10.1483    0.0000 C   0  0
   -4.4179    9.5340    0.0000 N   0  0
   -4.2565    8.0427    0.0000 C   0  0
   -4.8257    2.7399    0.0000 C   0  0
   -5.4358    4.1102    0.0000 O   0  0
   -5.7073    1.5263    0.0000 C   0  0
   -7.1991    1.6831    0.0000 C   0  0
   -8.0808    0.4696    0.0000 C   0  0
   -7.4707   -0.9007    0.0000 C   0  0
   -5.9789   -1.0575    0.0000 C   0  0
   -5.0972    0.1560    0.0000 C   0  0
  1  2  1  0
  2  3  1  0
  3  4  2  0
  4  5  1  0
  5  6  2  0
  6  7  1  0
  7  8  2  0
  8  3  1  0
  7  9  1  0
  9 10  2  0
  9 11  1  0
 11 12  2  0
 12  6  1  0
 12 13  1  0
 13 14  1  0
 14 15  1  0
 15 16  1  0
 16 17  1  0
 17 18  1  0
 18 19  2  0
 19 20  1  0
 20 21  2  0
 21 17  1  0
 13 22  1  0
 22 23  2  0
 22 24  1  0
 24 25  2  0
 25 26  1  0
 26 27  2  0
 27 28  1  0
 28 29  2  0
 29 11  1  0
 29 24  1  0
M  END
> <Smiles>
COc1ccc2c(c1)C(=O)c1c-2n(CCCn2ccnc2)c(=O)c2ccccc12

> <ID>
CHEMBL244978

> <standard_value>
178

> <IC50_uM>
0.178

> <Activity>
Yes

> <pIC50>
6.749579998

> <BCI>
1

$$$$

  SciTegic03012415362D

 31 35  0  0  0  0            999 V2000
    3.8983   -0.7459    0.0000 C   0  0
    2.6003   -1.4977    0.0000 O   0  0
    1.2990   -0.7500    0.0000 C   0  0
    1.2990    0.7500    0.0000 C   0  0
    0.0000    1.5000    0.0000 C   0  0
    0.0000    3.0000    0.0000 C   0  0
    1.2990    3.7500    0.0000 O   0  0
   -1.2991    3.7500    0.0000 N   0  0
   -1.2960    5.2508    0.0000 C   0  0
    0.0048    5.9994    0.0000 C   0  0
    0.0079    7.5002    0.0000 N   0  0
    1.3080    8.2484    0.0000 C   0  0
   -1.2898    8.2525    0.0000 C   0  0
   -2.5981    3.0000    0.0000 C   0  0
   -3.8971    3.7500    0.0000 C   0  0
   -3.8972    5.2500    0.0000 C   0  0
   -5.1962    6.0000    0.0000 C   0  0
   -6.4952    5.2500    0.0000 C   0  0
   -6.4952    3.7500    0.0000 C   0  0
   -5.1962    3.0000    0.0000 C   0  0
   -5.1962    1.5000    0.0000 C   0  0
   -3.8971    0.7500    0.0000 C   0  0
   -2.5981    1.5000    0.0000 C   0  0
   -1.2990    0.7500    0.0000 C   0  0
   -1.2990   -0.7500    0.0000 C   0  0
    0.0000   -1.5000    0.0000 C   0  0
   -0.0031   -3.0008    0.0000 O   0  0
   -1.3032   -3.7490    0.0000 C   0  0
   -7.6095    6.2529    0.0000 O   0  0
   -6.9995    7.6232    0.0000 C   0  0
   -5.5077    7.4665    0.0000 O   0  0
  1  2  1  0
  2  3  1  0
  3  4  2  0
  4  5  1  0
  5  6  1  0
  6  7  2  0
  6  8  1  0
  8  9  1  0
  9 10  1  0
 10 11  1  0
 11 12  1  0
 11 13  1  0
  8 14  1  0
 14 15  2  0
 15 16  1  0
 16 17  2  0
 17 18  1  0
 18 19  2  0
 19 20  1  0
 20 15  1  0
 20 21  2  0
 21 22  1  0
 22 23  2  0
 23 14  1  0
 23 24  1  0
 24  5  2  0
 24 25  1  0
 25 26  2  0
 26  3  1  0
 26 27  1  0
 27 28  1  0
 18 29  1  0
 29 30  1  0
 30 31  1  0
 31 17  1  0
M  END
> <Smiles>
COc1cc2c(=O)n(CCN(C)C)c3c4cc5c(cc4ccc3c2cc1OC)OCO5

> <ID>
CHEMBL4170692

> <standard_value>
186

> <IC50_uM>
0.186

> <Activity>
Yes

> <pIC50>
6.730487056

> <BCI>
1

$$$$

  SciTegic03012415362D

 32 36  0  0  0  0            999 V2000
    3.8983   -0.7459    0.0000 C   0  0
    2.6003   -1.4977    0.0000 O   0  0
    1.2990   -0.7500    0.0000 C   0  0
    1.2990    0.7500    0.0000 C   0  0
    0.0000    1.5000    0.0000 C   0  0
    0.0000    3.0000    0.0000 C   0  0
   -1.2991    3.7500    0.0000 C   0  0
   -2.5981    3.0000    0.0000 N   0  0
   -3.8994    3.7477    0.0000 C   0  0
   -5.1981    2.9954    0.0000 C   0  0
   -6.4994    3.7432    0.0000 C   0  0
   -7.7981    2.9909    0.0000 N   0  0
   -9.0986    3.7382    0.0000 C   0  0
   -7.7954    1.4909    0.0000 C   0  0
   -2.5981    1.5000    0.0000 C   0  0
   -3.8971    0.7500    0.0000 O   0  0
   -1.2990    0.7500    0.0000 C   0  0
   -1.2990   -0.7500    0.0000 C   0  0
    0.0000   -1.5000    0.0000 C   0  0
   -0.0031   -3.0008    0.0000 O   0  0
   -1.3032   -3.7490    0.0000 C   0  0
   -0.9876    5.2165    0.0000 C   0  0
   -1.8692    6.4288    0.0000 C   0  0
   -1.2591    7.7991    0.0000 C   0  0
    0.2327    7.9559    0.0000 C   0  0
    1.1144    6.7424    0.0000 C   0  0
    0.5042    5.3733    0.0000 C   0  0
    1.1143    4.0030    0.0000 C   0  0
    2.5815    3.6910    0.0000 O   0  0
    0.5446    9.4223    0.0000 O   0  0
   -0.7544   10.1723    0.0000 C   0  0
   -1.8691    9.1686    0.0000 O   0  0
  1  2  1  0
  2  3  1  0
  3  4  2  0
  4  5  1  0
  5  6  1  0
  6  7  2  0
  7  8  1  0
  8  9  1  0
  9 10  1  0
 10 11  1  0
 11 12  1  0
 12 13  1  0
 12 14  1  0
  8 15  1  0
 15 16  2  0
 15 17  1  0
 17  5  2  0
 17 18  1  0
 18 19  2  0
 19  3  1  0
 19 20  1  0
 20 21  1  0
  7 22  1  0
 22 23  2  0
 23 24  1  0
 24 25  2  0
 25 26  1  0
 26 27  2  0
 27 22  1  0
 27 28  1  0
 28  6  1  0
 28 29  2  0
 25 30  1  0
 30 31  1  0
 31 32  1  0
 32 24  1  0
M  END
> <Smiles>
COc1cc2c3c(n(CCCN(C)C)c(=O)c2cc1OC)-c1cc2c(cc1C3=O)OCO2

> <ID>
CHEMBL151795

> <standard_value>
190

> <IC50_uM>
0.19

> <Activity>
Yes

> <pIC50>
6.721246399

> <BCI>
1

$$$$

  SciTegic03012415362D

 23 26  0  0  0  0            999 V2000
    2.5981   -1.5000    0.0000 O   0  0
    1.2990   -0.7500    0.0000 C   0  0
    1.2990    0.7500    0.0000 C   0  0
    0.0000    1.5000    0.0000 C   0  0  3  0  0  0
    0.0000    3.0008    0.0000 C   0  0
    1.2978    3.7529    0.0000 C   0  0
    1.2954    5.2529    0.0000 C   0  0
   -0.0048    6.0009    0.0000 C   0  0
   -1.3026    5.2488    0.0000 C   0  0
   -1.3002    3.7488    0.0000 C   0  0
   -1.2990    0.7500    0.0000 C   0  0
   -1.2990   -0.7500    0.0000 C   0  0
   -2.5981   -1.5000    0.0000 N   0  0
   -2.5981   -3.0000    0.0000 C   0  0
   -3.8971   -3.7500    0.0000 C   0  0
   -5.1961   -3.0000    0.0000 Br  0  0
   -3.8971   -5.2500    0.0000 C   0  0
   -2.5980   -6.0000    0.0000 C   0  0
   -2.5980   -7.5000    0.0000 Br  0  0
   -1.2990   -5.2500    0.0000 C   0  0
   -1.2990   -3.7500    0.0000 C   0  0
    0.0000   -3.0000    0.0000 C   0  0
    0.0000   -1.5000    0.0000 C   0  0
  1  2  2  0
  2  3  1  0
  3  4  1  0
  4  5  1  4
  5  6  2  0
  6  7  1  0
  7  8  2  0
  8  9  1  0
  9 10  2  0
 10  5  1  0
  4 11  1  0
 11 12  1  0
 12 13  2  0
 13 14  1  0
 14 15  2  0
 15 16  1  0
 15 17  1  0
 17 18  2  0
 18 19  1  0
 18 20  1  0
 20 21  2  0
 21 14  1  0
 21 22  1  0
 22 23  2  0
 23 12  1  0
 23  2  1  0
M  END
> <Smiles>
O=C1CC(c2ccccc2)Cc2nc3c(Br)cc(Br)cc3cc21

> <ID>
CHEMBL4649626

> <standard_value>
192

> <IC50_uM>
0.192

> <Activity>
Yes

> <pIC50>
6.716698771

> <BCI>
1

$$$$

  SciTegic03012415362D

 33 36  0  0  1  0            999 V2000
    3.8964    0.7545    0.0000 C   0  0
    3.8990   -0.7455    0.0000 C   0  0
    5.1996   -1.4928    0.0000 O   0  0
    2.6003   -1.4977    0.0000 O   0  0
    1.2990   -0.7500    0.0000 C   0  0  1  0  0  0
    1.2990    0.7500    0.0000 C   0  0
    0.0000    1.5000    0.0000 C   0  0  1  0  0  0
   -1.2990    0.7500    0.0000 C   0  0  1  0  0  0
   -2.5981    0.0000    0.0000 C   0  0
   -2.5981    1.5000    0.0000 C   0  0
   -2.5981    3.0000    0.0000 C   0  0
   -1.2991    3.7500    0.0000 C   0  0  1  0  0  0
   -1.2991    5.2500    0.0000 C   0  0
   -2.5800    4.4695    0.0000 C   0  0
   -1.2638    6.7496    0.0000 C   0  0
    0.0000    6.0000    0.0000 C   0  0
    1.2990    5.2500    0.0000 C   0  0
    1.2990    3.7500    0.0000 C   0  0
    0.0000    3.0000    0.0000 C   0  0  2  0  0  0
    0.0000    4.5008    0.0000 C   0  0
    1.2985    5.2517    0.0000 O   0  0
   -1.2990   -0.7500    0.0000 C   0  0  2  0  0  0
   -2.5981   -1.5000    0.0000 C   0  0
   -2.5981   -3.0000    0.0000 C   0  0
   -1.2990   -3.7500    0.0000 C   0  0
   -1.3021   -5.2508    0.0000 C   0  0
   -0.0044   -6.0031    0.0000 C   0  0
   -2.6022   -5.9990    0.0000 O   0  0
    0.0000   -3.0000    0.0000 C   0  0  2  0  0  0
    1.2982   -3.7531    0.0000 C   0  0
    1.2961   -5.2531    0.0000 O   0  0
    0.0000   -1.5000    0.0000 C   0  0  1  0  0  0
    1.2990   -2.2500    0.0000 C   0  0
  1  2  1  0
  2  3  2  0
  2  4  1  0
  5  4  1  6
  5  6  1  0
  7  6  1  1
  7  8  1  0
  8  9  1  1
  8 10  1  0
 10 11  1  0
 12 11  1  1
 12 13  1  0
 13 14  1  0
 13 15  1  0
 13 16  1  0
 16 17  1  0
 17 18  1  0
 18 19  1  0
 19 12  1  0
 19  7  1  0
 19 20  1  1
 20 21  1  0
  8 22  1  0
 22 23  1  1
 23 24  1  0
 24 25  2  0
 25 26  1  0
 26 27  1  0
 26 28  2  0
 25 29  1  0
 29 30  1  1
 30 31  2  0
 29 32  1  0
 32  5  1  0
 32 22  1  0
 32 33  1  1
M  END
> <Smiles>
CC(=O)O[C@H]1C[C@H]2[C@@](C)(CC[C@H]3C(C)(C)CCC[C@@]32CO)[C@@H]2CC=C(C(C)=O)[C@H](C=O)[C@@]12C

> <ID>
CHEMBL250071

> <standard_value>
194.98

> <IC50_uM>
0.19498

> <Activity>
Yes

> <pIC50>
6.710009934

> <BCI>
1

$$$$

  SciTegic03012415362D

 25 28  0  0  0  0            999 V2000
   -5.1636   -7.1210    0.0000 C   0  0
   -5.6298   -5.6953    0.0000 O   0  0
   -4.6284   -4.5775    0.0000 C   0  0
   -3.1610   -4.8886    0.0000 C   0  0
   -2.1578   -3.7735    0.0000 C   0  0
   -0.6890   -4.0818    0.0000 C   0  0
    0.3114   -2.9665    0.0000 N   0  0
    1.8032   -3.1233    0.0000 C   0  0
    2.5536   -4.4230    0.0000 C   0  0
    4.0417   -4.4398    0.0000 N   0  0
    4.4674   -5.8782    0.0000 O   0  0
    3.2310   -6.7275    0.0000 N   0  0
    2.0412   -5.8141    0.0000 C   0  0
    0.6003   -6.2309    0.0000 N   0  0
    2.4133   -1.7530    0.0000 N   0  0
    1.2990   -0.7500    0.0000 C   0  0
    1.2990    0.7500    0.0000 C   0  0
    0.0000    1.5000    0.0000 C   0  0
   -1.2990    0.7500    0.0000 C   0  0
   -1.2990   -0.7500    0.0000 C   0  0
    0.0000   -1.5000    0.0000 C   0  0
   -2.6221   -2.3471    0.0000 C   0  0
   -4.0895   -2.0359    0.0000 C   0  0
   -5.0926   -3.1511    0.0000 C   0  0
   -6.5600   -2.8399    0.0000 C   0  0
  1  2  1  0
  2  3  1  0
  3  4  2  0
  4  5  1  0
  5  6  1  0
  6  7  1  0
  7  8  1  0
  8  9  1  0
  9 10  2  0
 10 11  1  0
 11 12  1  0
 12 13  2  0
 13  9  1  0
 13 14  1  0
  8 15  2  0
 15 16  1  0
 16 17  2  0
 17 18  1  0
 18 19  2  0
 19 20  1  0
 20 21  2  0
 21 16  1  0
 21  7  1  0
  5 22  2  0
 22 23  1  0
 23 24  2  0
 24  3  1  0
 24 25  1  0
M  END
> <Smiles>
COc1cc(Cn2c(-c3nonc3N)nc3ccccc32)ccc1C

> <ID>
CHEMBL1454000

> <standard_value>
199.53

> <IC50_uM>
0.19953

> <Activity>
Yes

> <pIC50>
6.699991797

> <BCI>
1

$$$$

  SciTegic03012415362D

 32 36  0  0  0  0            999 V2000
    3.8805   -1.4410    0.0000 O   0  0
    2.4133   -1.7530    0.0000 C   0  0
    1.2990   -0.7500    0.0000 C   0  0
    1.2990    0.7500    0.0000 C   0  0
    2.5981    1.5000    0.0000 O   0  0
    0.0000    1.5000    0.0000 C   0  0
   -1.2990    0.7500    0.0000 C   0  0
   -1.2990   -0.7500    0.0000 C   0  0
    0.0000   -1.5000    0.0000 C   0  0
    0.3114   -2.9665    0.0000 C   0  0
    1.8032   -3.1233    0.0000 C   0  0
    2.4135   -4.4923    0.0000 C   0  0
    3.9053   -4.6492    0.0000 C   0  0
    4.5154   -6.0195    0.0000 C   0  0
    3.6337   -7.2330    0.0000 C   0  0
    4.2413   -8.6053    0.0000 N   0  3
    3.3579   -9.8176    0.0000 O   0  0
    5.7328   -8.7647    0.0000 O   0  5
    2.1419   -7.0762    0.0000 C   0  0
    1.5318   -5.7059    0.0000 C   0  0
    0.0400   -5.5491    0.0000 C   0  0
   -0.8417   -6.7626    0.0000 O   0  0
   -0.5701   -4.1788    0.0000 N   0  0
   -2.0630   -4.0243    0.0000 C   0  0
   -2.9439   -5.2394    0.0000 C   0  0
   -4.4368   -5.0850    0.0000 C   0  0
   -5.3177   -6.3001    0.0000 N   0  0
   -6.8100   -6.1479    0.0000 C   0  0
   -7.6880   -7.3642    0.0000 C   0  0
   -7.0737   -8.7326    0.0000 O   0  0
   -5.5814   -8.8849    0.0000 C   0  0
   -4.7034   -7.6686    0.0000 C   0  0
  1  2  2  0
  2  3  1  0
  3  4  2  0
  4  5  1  0
  4  6  1  0
  6  7  2  0
  7  8  1  0
  8  9  2  0
  9  3  1  0
  9 10  1  0
 10 11  2  0
 11  2  1  0
 11 12  1  0
 12 13  2  0
 13 14  1  0
 14 15  2  0
 15 16  1  0
 16 17  2  0
 16 18  1  0
 15 19  1  0
 19 20  2  0
 20 12  1  0
 20 21  1  0
 21 22  2  0
 21 23  1  0
 23 10  1  0
 23 24  1  0
 24 25  1  0
 25 26  1  0
 26 27  1  0
 27 28  1  0
 28 29  1  0
 29 30  1  0
 30 31  1  0
 31 32  1  0
 32 27  1  0
M  CHG  2  16   1  18  -1
M  END
> <Smiles>
O=C1c2c(O)cccc2-c2c1c1ccc([N+](=O)[O-])cc1c(=O)n2CCCN1CCOCC1

> <ID>
CHEMBL3422403

> <standard_value>
200

> <IC50_uM>
0.2

> <Activity>
Yes

> <pIC50>
6.698970004

> <BCI>
1

$$$$

  SciTegic03012415362D

 28 32  0  0  0  0            999 V2000
    3.8805   -1.4410    0.0000 O   0  0
    2.4133   -1.7530    0.0000 C   0  0
    1.2990   -0.7500    0.0000 C   0  0
    1.2990    0.7500    0.0000 C   0  0
    0.0000    1.5000    0.0000 C   0  0
   -1.2990    0.7500    0.0000 C   0  0
   -1.2990   -0.7500    0.0000 C   0  0
    0.0000   -1.5000    0.0000 C   0  0
    0.3114   -2.9665    0.0000 C   0  0
    1.8032   -3.1233    0.0000 C   0  0
    2.4135   -4.4923    0.0000 C   0  0
    3.9053   -4.6492    0.0000 C   0  0
    4.5154   -6.0195    0.0000 C   0  0
    3.6337   -7.2330    0.0000 C   0  0
    4.2438   -8.6033    0.0000 Cl  0  0
    2.1419   -7.0762    0.0000 C   0  0
    1.5318   -5.7059    0.0000 C   0  0
    0.0400   -5.5491    0.0000 C   0  0
   -0.8417   -6.7626    0.0000 O   0  0
   -0.5701   -4.1788    0.0000 N   0  0
   -2.0630   -4.0243    0.0000 C   0  0
   -2.9439   -5.2394    0.0000 C   0  0
   -4.4368   -5.0850    0.0000 C   0  0
   -5.3177   -6.3001    0.0000 N   0  0
   -6.8049   -6.2870    0.0000 C   0  0
   -7.2640   -7.7150    0.0000 C   0  0
   -6.0478   -8.5929    0.0000 N   0  0
   -4.8370   -7.7076    0.0000 C   0  0
  1  2  2  0
  2  3  1  0
  3  4  2  0
  4  5  1  0
  5  6  2  0
  6  7  1  0
  7  8  2  0
  8  3  1  0
  8  9  1  0
  9 10  2  0
 10  2  1  0
 10 11  1  0
 11 12  2  0
 12 13  1  0
 13 14  2  0
 14 15  1  0
 14 16  1  0
 16 17  2  0
 17 11  1  0
 17 18  1  0
 18 19  2  0
 18 20  1  0
 20  9  1  0
 20 21  1  0
 21 22  1  0
 22 23  1  0
 23 24  1  0
 24 25  1  0
 25 26  2  0
 26 27  1  0
 27 28  2  0
 28 24  1  0
M  END
> <Smiles>
O=C1c2ccccc2-c2c1c1ccc(Cl)cc1c(=O)n2CCCn1ccnc1

> <ID>
CHEMBL3581860

> <standard_value>
204

> <IC50_uM>
0.204

> <Activity>
Yes

> <pIC50>
6.690369833

> <BCI>
1

$$$$

  SciTegic03012415362D

 27 30  0  0  0  0            999 V2000
    3.8912   -5.2570    0.0000 N   0  0
    3.8933   -3.7570    0.0000 C   0  0
    2.5951   -3.0039    0.0000 C   0  0
    2.5973   -1.5031    0.0000 C   0  0
    1.2990   -0.7500    0.0000 N   0  0
    1.2990    0.7500    0.0000 C   0  0
    0.0000    1.5000    0.0000 C   0  0
   -1.2990    0.7500    0.0000 C   0  0
   -2.5981    1.5000    0.0000 C   0  0
   -3.8971    0.7500    0.0000 C   0  0
   -3.8971   -0.7500    0.0000 C   0  0
   -5.1953   -1.5031    0.0000 N   0  3
   -5.1932   -3.0031    0.0000 O   0  0
   -6.4957   -0.7554    0.0000 O   0  5
   -2.5981   -1.5000    0.0000 C   0  0
   -1.2990   -0.7500    0.0000 C   0  0
    0.0000   -1.5000    0.0000 C   0  0
    0.0000   -3.0000    0.0000 O   0  0
    0.3114    2.9665    0.0000 C   0  0
   -0.6924    4.0811    0.0000 O   0  0
    1.8032    3.1233    0.0000 C   0  0
    2.6837    4.3363    0.0000 C   0  0
    4.1755    4.1795    0.0000 C   0  0
    4.7856    2.8092    0.0000 C   0  0
    6.2774    2.6524    0.0000 O   0  0
    3.9040    1.5957    0.0000 C   0  0
    2.4133    1.7530    0.0000 C   0  0
  1  2  1  0
  2  3  1  0
  3  4  1  0
  4  5  1  0
  5  6  1  0
  6  7  2  0
  7  8  1  0
  8  9  2  0
  9 10  1  0
 10 11  2  0
 11 12  1  0
 12 13  2  0
 12 14  1  0
 11 15  1  0
 15 16  2  0
 16  8  1  0
 16 17  1  0
 17  5  1  0
 17 18  2  0
  7 19  1  0
 19 20  2  0
 19 21  1  0
 21 22  2  0
 22 23  1  0
 23 24  2  0
 24 25  1  0
 24 26  1  0
 26 27  2  0
 27 21  1  0
 27  6  1  0
M  CHG  2  12   1  14  -1
M  END
> <Smiles>
Br.NCCCn1c2c(c3ccc([N+](=O)[O-])cc3c1=O)C(=O)c1ccc(O)cc1-2

> <ID>
CHEMBL3422398

> <standard_value>
210

> <IC50_uM>
0.21

> <Activity>
Yes

> <pIC50>
6.677780705

> <BCI>
1

> <RemovedSalts>
HBr

$$$$

  SciTegic03012415362D

 34 38  0  0  1  0            999 V2000
    3.8983   -0.7459    0.0000 C   0  0
    2.6003   -1.4977    0.0000 O   0  0
    1.2990   -0.7500    0.0000 C   0  0
    1.2990    0.7500    0.0000 C   0  0
    0.0000    1.5000    0.0000 C   0  0
   -0.0031    3.0008    0.0000 C   0  0
   -1.3039    3.7494    0.0000 C   0  0
   -1.3070    5.2502    0.0000 C   0  0
   -2.6061    6.0003    0.0000 C   0  0
   -2.6061    7.5003    0.0000 C   0  0
   -3.9074    8.2480    0.0000 O   0  0
   -5.2054    7.4961    0.0000 C   0  0
   -1.3071    8.2503    0.0000 C   0  0
   -0.9957    9.7168    0.0000 C   0  0
    0.4961    9.8736    0.0000 C   0  0
    1.1062    8.5033    0.0000 N   0  0
    2.5734    8.1914    0.0000 C   0  0
   -0.0080    7.5003    0.0000 C   0  0
   -0.0080    6.0003    0.0000 C   0  0
   -1.2990    0.7500    0.0000 C   0  0
   -1.2990   -0.7500    0.0000 C   0  0
    0.0000   -1.5000    0.0000 C   0  0
    0.0000   -3.0000    0.0000 O   0  0
   -1.2990   -3.7500    0.0000 C   0  0  2  0  0  0
    0.0000   -4.5000    0.0000 C   0  0
   -1.2990   -5.2500    0.0000 C   0  0
   -2.5981   -6.0000    0.0000 C   0  0
   -3.8971   -5.2500    0.0000 C   0  0  1  0  0  0
   -5.1961   -6.0000    0.0000 O   0  0
   -3.8971   -3.7500    0.0000 C   0  0
   -3.8617   -2.2504    0.0000 C   0  0
   -5.1782   -4.5303    0.0000 C   0  0
   -2.5981   -3.0000    0.0000 C   0  0  1  0  0  0
   -2.5981   -1.5000    0.0000 C   0  0
  1  2  1  0
  2  3  1  0
  3  4  2  0
  4  5  1  0
  5  6  1  0
  6  7  2  0
  7  8  1  0
  8  9  2  0
  9 10  1  0
 10 11  1  0
 11 12  1  0
 10 13  2  0
 13 14  1  0
 14 15  2  0
 15 16  1  0
 16 17  1  0
 16 18  1  0
 18 13  1  0
 18 19  2  0
 19  8  1  0
  5 20  2  0
 20 21  1  0
 21 22  2  0
 22  3  1  0
 22 23  1  0
 23 24  1  0
 24 25  1  1
 24 26  1  0
 26 27  1  0
 27 28  1  0
 28 29  1  1
 28 30  1  0
 30 31  1  0
 30 32  1  0
 30 33  1  0
 33 24  1  0
 33 34  1  1
 34 21  1  0
M  END
> <Smiles>
COc1cc(/C=C/c2cc(OC)c3ccn(C)c3c2)cc2c1O[C@]1(C)CC[C@@H](O)C(C)(C)[C@H]1C2

> <ID>
CHEMBL3233617

> <standard_value>
213.8

> <IC50_uM>
0.2138

> <Activity>
Yes

> <pIC50>
6.669992299

> <BCI>
1

$$$$

  SciTegic03012415362D

 24 27  0  0  0  0            999 V2000
   -6.0175   -0.2927    0.0000 C   0  0
   -4.5510   -0.6078    0.0000 O   0  0
   -4.0895   -2.0359    0.0000 C   0  0
   -5.0926   -3.1511    0.0000 C   0  0
   -4.6284   -4.5775    0.0000 C   0  0
   -3.1610   -4.8886    0.0000 C   0  0
   -2.1578   -3.7735    0.0000 C   0  0
   -0.6890   -4.0818    0.0000 C   0  0
    0.3114   -2.9665    0.0000 N   0  0
    1.8032   -3.1233    0.0000 C   0  0
    2.5536   -4.4230    0.0000 C   0  0
    4.0417   -4.4398    0.0000 N   0  0
    4.4674   -5.8782    0.0000 O   0  0
    3.2310   -6.7275    0.0000 N   0  0
    2.0412   -5.8141    0.0000 C   0  0
    0.6003   -6.2309    0.0000 N   0  0
    2.4133   -1.7530    0.0000 N   0  0
    1.2990   -0.7500    0.0000 C   0  0
    1.2990    0.7500    0.0000 C   0  0
    0.0000    1.5000    0.0000 C   0  0
   -1.2990    0.7500    0.0000 C   0  0
   -1.2990   -0.7500    0.0000 C   0  0
    0.0000   -1.5000    0.0000 C   0  0
   -2.6221   -2.3471    0.0000 C   0  0
  1  2  1  0
  2  3  1  0
  3  4  2  0
  4  5  1  0
  5  6  2  0
  6  7  1  0
  7  8  1  0
  8  9  1  0
  9 10  1  0
 10 11  1  0
 11 12  2  0
 12 13  1  0
 13 14  1  0
 14 15  2  0
 15 11  1  0
 15 16  1  0
 10 17  2  0
 17 18  1  0
 18 19  2  0
 19 20  1  0
 20 21  2  0
 21 22  1  0
 22 23  2  0
 23 18  1  0
 23  9  1  0
  7 24  2  0
 24  3  1  0
M  END
> <Smiles>
COc1cccc(Cn2c(-c3nonc3N)nc3ccccc32)c1

> <ID>
CHEMBL1464180

> <standard_value>
213.8

> <IC50_uM>
0.2138

> <Activity>
Yes

> <pIC50>
6.669992299

> <BCI>
1

$$$$

  SciTegic03012415362D

 22 25  0  0  0  0            999 V2000
    2.5981   -1.5000    0.0000 O   0  0
    1.2990   -0.7500    0.0000 C   0  0
    1.2990    0.7500    0.0000 C   0  0
    0.0000    1.5000    0.0000 C   0  0  3  0  0  0
    0.0000    3.0008    0.0000 C   0  0
    1.2978    3.7529    0.0000 C   0  0
    1.2954    5.2529    0.0000 C   0  0
   -0.0048    6.0009    0.0000 C   0  0
   -1.3026    5.2488    0.0000 C   0  0
   -1.3002    3.7488    0.0000 C   0  0
   -1.2990    0.7500    0.0000 C   0  0
   -1.2990   -0.7500    0.0000 C   0  0
   -2.5981   -1.5000    0.0000 N   0  0
   -2.5981   -3.0000    0.0000 C   0  0
   -3.8971   -3.7500    0.0000 C   0  0
   -3.8971   -5.2500    0.0000 C   0  0
   -2.5980   -6.0000    0.0000 C   0  0
   -2.5980   -7.5000    0.0000 Cl  0  0
   -1.2990   -5.2500    0.0000 C   0  0
   -1.2990   -3.7500    0.0000 C   0  0
    0.0000   -3.0000    0.0000 C   0  0
    0.0000   -1.5000    0.0000 C   0  0
  1  2  2  0
  2  3  1  0
  3  4  1  0
  4  5  1  4
  5  6  2  0
  6  7  1  0
  7  8  2  0
  8  9  1  0
  9 10  2  0
 10  5  1  0
  4 11  1  0
 11 12  1  0
 12 13  2  0
 13 14  1  0
 14 15  2  0
 15 16  1  0
 16 17  2  0
 17 18  1  0
 17 19  1  0
 19 20  2  0
 20 14  1  0
 20 21  1  0
 21 22  2  0
 22 12  1  0
 22  2  1  0
M  END
> <Smiles>
O=C1CC(c2ccccc2)Cc2nc3ccc(Cl)cc3cc21

> <ID>
CHEMBL4646758

> <standard_value>
219

> <IC50_uM>
0.219

> <Activity>
Yes

> <pIC50>
6.659555885

> <BCI>
1

$$$$

  SciTegic03012415362D

 48 53  0  0  1  0            999 V2000
   10.5197   -9.9259    0.0000 C   0  0
   10.1838   -8.4640    0.0000 O   0  0
   11.2819   -7.4409    0.0000 C   0  0
   12.7152   -7.8831    0.0000 C   0  0
   13.8148   -6.8628    0.0000 C   0  0
   13.4811   -5.4004    0.0000 C   0  0
   14.5812   -4.3797    0.0000 C   0  0
   16.0374   -4.6821    0.0000 N   0  0
   16.7658   -3.3709    0.0000 O   0  0
   15.7438   -2.2729    0.0000 C   0  0  3  0  0  0
   16.0316   -0.8000    0.0000 C   0  0
   17.4054   -0.2103    0.0000 C   0  0
   17.5814    1.2793    0.0000 C   0  0
   18.9614    1.8692    0.0000 O   0  0
   20.1622    0.9703    0.0000 C   0  0
   16.3793    2.1765    0.0000 C   0  0
   16.5523    3.6674    0.0000 O   0  0
   15.3490    4.5629    0.0000 C   0  0
   15.0013    1.5841    0.0000 C   0  0
   13.7967    2.4794    0.0000 O   0  0
   12.4195    1.8850    0.0000 C   0  0
   14.8253    0.0945    0.0000 C   0  0
   14.3838   -2.9055    0.0000 C   0  0
   12.0477   -4.9583    0.0000 C   0  0
   10.9480   -5.9785    0.0000 C   0  0
    9.5148   -5.5332    0.0000 O   0  0
    9.1829   -4.0695    0.0000 C   0  0
    7.7497   -3.6242    0.0000 C   0  0
    7.4178   -2.1605    0.0000 C   0  0
    5.9845   -1.7152    0.0000 C   0  0
    5.6526   -0.2515    0.0000 O   0  0
    4.2194    0.1938    0.0000 C   0  0
    3.1198   -0.8265    0.0000 C   0  0
    1.6852   -0.3846    0.0000 C   0  0
    1.3514    1.0778    0.0000 C   0  0
    2.4522    2.0983    0.0000 C   0  0
    3.8856    1.6562    0.0000 C   0  0
    4.9837    2.6793    0.0000 O   0  0
    4.6478    4.1412    0.0000 C   0  0
    0.0000    1.7286    0.0000 C   0  0
    0.0000    3.2286    0.0000 O   0  0
   -1.3515    1.0777    0.0000 N   0  0
   -2.6395    1.8472    0.0000 C   0  0
   -3.7691    0.8603    0.0000 C   0  0
   -3.1796   -0.5190    0.0000 C   0  0
   -1.6852   -0.3847    0.0000 C   0  0  1  0  0  0
   -0.7500   -1.5574    0.0000 C   0  0
    0.7500   -1.5574    0.0000 N   0  0
  1  2  1  0
  2  3  1  0
  3  4  2  0
  4  5  1  0
  5  6  2  0
  6  7  1  0
  7  8  2  0
  8  9  1  0
  9 10  1  0
 10 11  1  4
 11 12  2  0
 12 13  1  0
 13 14  1  0
 14 15  1  0
 13 16  2  0
 16 17  1  0
 17 18  1  0
 16 19  1  0
 19 20  1  0
 20 21  1  0
 19 22  2  0
 22 11  1  0
 10 23  1  0
 23  7  1  0
  6 24  1  0
 24 25  2  0
 25  3  1  0
 25 26  1  0
 26 27  1  0
 27 28  1  0
 28 29  1  0
 29 30  1  0
 30 31  1  0
 31 32  1  0
 32 33  2  0
 33 34  1  0
 34 35  2  0
 35 36  1  0
 36 37  2  0
 37 32  1  0
 37 38  1  0
 38 39  1  0
 35 40  1  0
 40 41  2  0
 40 42  1  0
 42 43  1  0
 43 44  1  0
 44 45  1  0
 46 45  1  6
 46 42  1  0
 46 47  1  0
 47 48  2  0
 48 34  1  0
M  END
> <Smiles>
COc1ccc(C2=NOC(c3cc(OC)c(OC)c(OC)c3)C2)cc1OCCCCOc1cc2c(cc1OC)C(=O)N1CCC[C@H]1C=N2

> <ID>
CHEMBL1240850

> <standard_value>
220

> <IC50_uM>
0.22

> <Activity>
Yes

> <pIC50>
6.657577319

> <BCI>
1

$$$$

  SciTegic03012415362D

 31 34  0  0  1  0            999 V2000
   -1.8656   -9.1428    0.0000 C   0  0
   -0.8500   -8.0388    0.0000 C   0  0
   -1.2977   -6.6063    0.0000 O   0  0
   -0.2816   -5.5018    0.0000 C   0  0
    1.1821   -5.8297    0.0000 O   0  0
   -0.7292   -4.0692    0.0000 C   0  0
    0.2851   -2.9666    0.0000 C   0  0  1  0  0  0
    1.7758   -3.1329    0.0000 C   0  0
    2.3947   -1.7666    0.0000 C   0  0
    1.2990   -0.7500    0.0000 C   0  0  1  0  0  0
    1.2990    0.7500    0.0000 C   0  0  2  0  0  0
    2.5981    1.5000    0.0000 C   0  0
    2.5981    3.0000    0.0000 C   0  0
    1.2990    3.7500    0.0000 C   0  0
    1.2990    5.2500    0.0000 C   0  0
    0.0000    6.0000    0.0000 C   0  0
    0.0030    7.5008    0.0000 O   0  0
    1.3038    8.2494    0.0000 S   0  0
    2.6016    7.4972    0.0000 N   0  0
    1.3069    9.7494    0.0000 O   0  0
    2.6043    8.9970    0.0000 O   0  0
   -1.2991    5.2500    0.0000 C   0  0
   -2.6004    5.9977    0.0000 C   0  0
   -3.8983    5.2459    0.0000 C   0  0
   -1.2991    3.7500    0.0000 C   0  0
    0.0000    3.0000    0.0000 C   0  0
    0.0000    1.5000    0.0000 C   0  0  1  0  0  0
   -1.2990    0.7500    0.0000 C   0  0
   -1.2990   -0.7500    0.0000 C   0  0
    0.0000   -1.5000    0.0000 C   0  0  2  0  0  0
   -1.2212   -2.3711    0.0000 C   0  0
  1  2  1  0
  2  3  1  0
  3  4  1  0
  4  5  2  0
  4  6  1  0
  7  6  1  6
  7  8  1  0
  8  9  1  0
 10  9  1  6
 10 11  1  0
 11 12  1  1
 12 13  1  0
 13 14  1  0
 14 15  2  0
 15 16  1  0
 16 17  1  0
 17 18  1  0
 18 19  1  0
 18 20  2  0
 18 21  2  0
 16 22  2  0
 22 23  1  0
 23 24  1  0
 22 25  1  0
 25 26  2  0
 26 14  1  0
 26 27  1  0
 27 11  1  0
 27 28  1  6
 28 29  1  0
 29 30  1  0
 30  7  1  0
 30 10  1  0
 30 31  1  6
M  END
> <Smiles>
CCOC(=O)C[C@H]1CC[C@H]2[C@@H]3CCc4cc(OS(N)(=O)=O)c(CC)cc4[C@H]3CC[C@]12C

> <ID>
CHEMBL1812439

> <standard_value>
220

> <IC50_uM>
0.22

> <Activity>
Yes

> <pIC50>
6.657577319

> <BCI>
1

$$$$

  SciTegic03012415362D

 28 31  0  0  1  0            999 V2000
    3.8983   -0.7459    0.0000 C   0  0
    2.6003   -1.4977    0.0000 C   0  0
    1.2990   -0.7500    0.0000 C   0  0
    1.2990    0.7500    0.0000 C   0  0
    0.0000    1.5000    0.0000 C   0  0
   -1.2990    0.7500    0.0000 C   0  0
   -1.2990   -0.7500    0.0000 C   0  0
    0.0000   -1.5000    0.0000 C   0  0
   -0.0031   -3.0008    0.0000 O   0  0
   -1.3039   -3.7494    0.0000 S   0  0
   -2.6016   -2.9971    0.0000 N   0  0
   -1.3070   -5.2494    0.0000 O   0  0
   -2.6044   -4.4969    0.0000 O   0  0
   -2.5981    1.5000    0.0000 C   0  0
   -2.5981    3.0000    0.0000 C   0  0
   -1.2991    3.7500    0.0000 C   0  0  2  0  0  0
    0.0000    3.0000    0.0000 C   0  0  2  0  0  0
    1.2990    3.7500    0.0000 C   0  0
    1.2990    5.2500    0.0000 C   0  0
    0.0000    6.0000    0.0000 C   0  0  2  0  0  0
    1.2211    6.8711    0.0000 C   0  0
   -0.2851    7.4666    0.0000 C   0  0
    0.7291    8.5692    0.0000 C   0  0
    0.2815   10.0018    0.0000 C   0  0
    1.2970   11.1057    0.0000 O   0  0
   -1.7759    7.6329    0.0000 C   0  0
   -2.3947    6.2665    0.0000 C   0  0
   -1.2991    5.2500    0.0000 C   0  0  1  0  0  0
  1  2  1  0
  2  3  1  0
  3  4  2  0
  4  5  1  0
  5  6  2  0
  6  7  1  0
  7  8  2  0
  8  3  1  0
  8  9  1  0
  9 10  1  0
 10 11  1  0
 10 12  2  0
 10 13  2  0
  6 14  1  0
 14 15  1  0
 16 15  1  1
 16 17  1  0
 17  5  1  0
 17 18  1  6
 18 19  1  0
 19 20  1  0
 20 21  1  6
 20 22  1  0
 22 23  2  0
 23 24  1  0
 24 25  1  0
 22 26  1  0
 26 27  1  0
 28 27  1  6
 28 16  1  0
 28 20  1  0
M  END
> <Smiles>
CCc1cc2c(cc1OS(N)(=O)=O)CC[C@@H]1[C@@H]2CC[C@]2(C)/C(=C/CO)CC[C@@H]12

> <ID>
CHEMBL1812451

> <standard_value>
220

> <IC50_uM>
0.22

> <Activity>
Yes

> <pIC50>
6.657577319

> <BCI>
1

$$$$

  SciTegic03012415362D

 42 47  0  0  1  0            999 V2000
    5.9843   -1.7144    0.0000 C   0  0
    5.6526   -0.2515    0.0000 O   0  0
    4.2194    0.1938    0.0000 C   0  0
    3.1198   -0.8265    0.0000 C   0  0
    1.6852   -0.3846    0.0000 C   0  0
    1.3514    1.0778    0.0000 C   0  0
    2.4522    2.0983    0.0000 C   0  0
    3.8856    1.6562    0.0000 C   0  0
    4.9837    2.6793    0.0000 O   0  0
    4.6476    4.1420    0.0000 C   0  0
    5.7457    5.1651    0.0000 C   0  0
    5.4096    6.6278    0.0000 C   0  0
    6.5077    7.6509    0.0000 C   0  0
    6.1717    9.1136    0.0000 C   0  0
    7.2697   10.1367    0.0000 O   0  0
    6.9337   11.5994    0.0000 C   0  0
    8.0297   12.6235    0.0000 C   0  0
    7.6908   14.0848    0.0000 C   0  0
    6.2559   14.5219    0.0000 C   0  0
    5.9169   15.9839    0.0000 N   0  0
    7.0113   17.0098    0.0000 C   0  0
    8.4469   16.5750    0.0000 C   0  0
    6.6701   18.4705    0.0000 N   0  0
    5.2346   18.9054    0.0000 C   0  0
    4.8934   20.3661    0.0000 C   0  0
    3.4578   20.8010    0.0000 C   0  0
    2.3634   19.7752    0.0000 C   0  0
    2.7046   18.3145    0.0000 C   0  0
    4.1402   17.8796    0.0000 C   0  0
    4.4813   16.4189    0.0000 C   0  0
    3.3869   15.3931    0.0000 O   0  0
    5.1599   13.4979    0.0000 C   0  0
    5.4987   12.0366    0.0000 C   0  0
    0.0000    1.7286    0.0000 N   0  0
   -1.3515    1.0777    0.0000 C   0  0
   -1.6852   -0.3847    0.0000 C   0  0  2  0  0  0
   -3.0899   -0.9120    0.0000 C   0  0
   -3.0226   -2.4105    0.0000 C   0  0
   -1.5767   -2.8095    0.0000 C   0  0
   -0.7500   -1.5574    0.0000 N   0  0
    0.7500   -1.5574    0.0000 C   0  0
    1.4008   -2.9088    0.0000 O   0  0
  1  2  1  0
  2  3  1  0
  3  4  2  0
  4  5  1  0
  5  6  2  0
  6  7  1  0
  7  8  2  0
  8  3  1  0
  8  9  1  0
  9 10  1  0
 10 11  1  0
 11 12  1  0
 12 13  1  0
 13 14  1  0
 14 15  1  0
 15 16  1  0
 16 17  2  0
 17 18  1  0
 18 19  2  0
 19 20  1  0
 20 21  1  0
 21 22  1  0
 21 23  2  0
 23 24  1  0
 24 25  2  0
 25 26  1  0
 26 27  2  0
 27 28  1  0
 28 29  2  0
 29 24  1  0
 29 30  1  0
 30 20  1  0
 30 31  2  0
 19 32  1  0
 32 33  2  0
 33 16  1  0
  6 34  1  0
 34 35  2  0
 36 35  1  1
 36 37  1  0
 37 38  1  0
 38 39  1  0
 39 40  1  0
 40 36  1  0
 40 41  1  0
 41  5  1  0
 41 42  2  0
M  END
> <Smiles>
COc1cc2c(cc1OCCCCCOc1ccc(-n3c(C)nc4ccccc4c3=O)cc1)N=C[C@@H]1CCCN1C2=O

> <ID>
CHEMBL1812759

> <standard_value>
220

> <IC50_uM>
0.22

> <Activity>
Yes

> <pIC50>
6.657577319

> <BCI>
1

$$$$

  SciTegic03012415362D

 31 35  0  0  0  0            999 V2000
    2.5951   -3.0031    0.0000 C   0  0
    2.5973   -1.5031    0.0000 O   0  0
    1.2990   -0.7500    0.0000 C   0  0
    1.2990    0.7500    0.0000 C   0  0
    0.0000    1.5000    0.0000 N   0  0
   -1.2990    0.7500    0.0000 C   0  0
   -1.2990   -0.7500    0.0000 C   0  0
    0.0000   -1.5000    0.0000 C   0  0
   -2.7248   -1.2135    0.0000 C   0  0
   -3.1882   -2.6402    0.0000 O   0  0
   -3.6065    0.0000    0.0000 C   0  0
   -2.7248    1.2135    0.0000 C   0  0
   -3.3339    2.5831    0.0000 N   0  0
   -2.4537    3.7988    0.0000 C   0  0
   -3.0656    5.1692    0.0000 C   0  0
   -2.1854    6.3848    0.0000 C   0  0
   -2.7972    7.7553    0.0000 N   0  0
   -1.9193    8.9716    0.0000 C   0  0
   -2.5336   10.3400    0.0000 C   0  0
   -4.0259   10.4923    0.0000 O   0  0
   -4.9038    9.2761    0.0000 C   0  0
   -4.2896    7.9076    0.0000 C   0  0
   -4.8257    2.7399    0.0000 C   0  0
   -5.4358    4.1102    0.0000 O   0  0
   -5.7073    1.5263    0.0000 C   0  0
   -7.1991    1.6831    0.0000 C   0  0
   -8.0808    0.4696    0.0000 C   0  0
   -9.5726    0.6264    0.0000 F   0  0
   -7.4707   -0.9007    0.0000 C   0  0
   -5.9789   -1.0575    0.0000 C   0  0
   -5.0972    0.1560    0.0000 C   0  0
  1  2  1  0
  2  3  1  0
  3  4  2  0
  4  5  1  0
  5  6  2  0
  6  7  1  0
  7  8  2  0
  8  3  1  0
  7  9  1  0
  9 10  2  0
  9 11  1  0
 11 12  2  0
 12  6  1  0
 12 13  1  0
 13 14  1  0
 14 15  1  0
 15 16  1  0
 16 17  1  0
 17 18  1  0
 18 19  1  0
 19 20  1  0
 20 21  1  0
 21 22  1  0
 22 17  1  0
 13 23  1  0
 23 24  2  0
 23 25  1  0
 25 26  2  0
 26 27  1  0
 27 28  1  0
 27 29  2  0
 29 30  1  0
 30 31  2  0
 31 11  1  0
 31 25  1  0
M  END
> <Smiles>
COc1cnc2c(c1)C(=O)c1c-2n(CCCN2CCOCC2)c(=O)c2cc(F)ccc12

> <ID>
CHEMBL4072994

> <standard_value>
228

> <IC50_uM>
0.228

> <Activity>
Yes

> <pIC50>
6.642065153

> <BCI>
1

$$$$

  SciTegic03012415362D

 23 26  0  0  0  0            999 V2000
    2.5981   -1.5000    0.0000 O   0  0
    1.2990   -0.7500    0.0000 C   0  0
    1.2990    0.7500    0.0000 N   0  0
    0.0000    1.5000    0.0000 C   0  0  3  0  0  0
   -1.2990    0.7500    0.0000 C   0  0  3  0  0  0
   -2.5981    1.5000    0.0000 C   0  0
   -2.5981    3.0000    0.0000 C   0  0  3  0  0  0
   -3.8971    3.7500    0.0000 O   0  0
   -1.2991    3.7500    0.0000 C   0  0  3  0  0  0
   -1.2991    5.2500    0.0000 O   0  0
    0.0000    3.0000    0.0000 C   0  0  3  0  0  0
    1.2990    3.7500    0.0000 O   0  0
   -1.2990   -0.7500    0.0000 C   0  0
   -2.5981   -1.5000    0.0000 C   0  0
   -2.5981   -3.0000    0.0000 C   0  0
   -1.2990   -3.7500    0.0000 C   0  0
    0.0000   -3.0000    0.0000 C   0  0
    1.2991   -3.7500    0.0000 O   0  0
    0.0000   -1.5000    0.0000 C   0  0
   -1.2990   -5.2500    0.0000 O   0  0
   -2.5981   -6.0000    0.0000 C   0  0
   -3.8971   -5.2500    0.0000 C   0  0
   -3.8971   -3.7500    0.0000 O   0  0
  1  2  2  0
  2  3  1  0
  4  3  1  4
  4  5  1  0
  5  6  1  4
  6  7  1  0
  7  8  1  4
  7  9  1  0
  9 10  1  4
  9 11  1  0
 11  4  1  0
 11 12  1  4
  5 13  1  0
 13 14  2  0
 14 15  1  0
 15 16  2  0
 16 17  1  0
 17 18  1  0
 17 19  2  0
 19 13  1  0
 19  2  1  0
 16 20  1  0
 20 21  1  0
 21 22  1  0
 22 23  1  0
 23 15  1  0
M  END
> <Smiles>
O=C1NC2C(CC(O)C(O)C2O)c2cc3c(c(O)c21)OCCO3

> <ID>
CHEMBL4461169

> <standard_value>
228

> <IC50_uM>
0.228

> <Activity>
Yes

> <pIC50>
6.642065153

> <BCI>
1

$$$$

  SciTegic03012415362D

 42 46  0  0  1  0            999 V2000
    3.8983   -0.7459    0.0000 C   0  0
    2.6003   -1.4977    0.0000 O   0  0
    1.2990   -0.7500    0.0000 C   0  0
    1.2990    0.7500    0.0000 C   0  0
    0.0000    1.5000    0.0000 C   0  0
   -0.0031    3.0008    0.0000 C   0  0
   -1.3039    3.7494    0.0000 C   0  0
   -1.3070    5.2502    0.0000 C   0  0
   -2.6061    6.0003    0.0000 C   0  0
   -2.6061    7.5003    0.0000 C   0  0
   -3.9052    8.2502    0.0000 O   0  0
   -1.3071    8.2503    0.0000 C   0  0
   -0.9957    9.7168    0.0000 C   0  0
   -1.9961   10.8321    0.0000 C   0  0
   -1.5306   12.2589    0.0000 C   0  0
   -2.5328   13.3761    0.0000 C   0  0
   -4.0005   13.0665    0.0000 C   0  0
   -2.0673   14.8029    0.0000 C   0  0
   -3.0695   15.9201    0.0000 C   0  0
   -2.6040   17.3469    0.0000 C   0  0
   -3.6061   18.4641    0.0000 C   0  0
   -3.1409   19.8901    0.0000 C   0  0
   -5.0738   18.1544    0.0000 C   0  0
    0.4961    9.8736    0.0000 C   0  0
    1.1062    8.5033    0.0000 N   0  0
   -0.0080    7.5003    0.0000 C   0  0
   -0.0080    6.0003    0.0000 C   0  0
   -1.2990    0.7500    0.0000 C   0  0
   -1.2990   -0.7500    0.0000 C   0  0
    0.0000   -1.5000    0.0000 C   0  0
    0.0000   -3.0000    0.0000 O   0  0
   -1.2990   -3.7500    0.0000 C   0  0  2  0  0  0
    0.0000   -4.5000    0.0000 C   0  0
   -1.2990   -5.2500    0.0000 C   0  0
   -2.5981   -6.0000    0.0000 C   0  0
   -3.8971   -5.2500    0.0000 C   0  0  1  0  0  0
   -5.1961   -6.0000    0.0000 O   0  0
   -3.8971   -3.7500    0.0000 C   0  0
   -3.8617   -2.2504    0.0000 C   0  0
   -5.1782   -4.5303    0.0000 C   0  0
   -2.5981   -3.0000    0.0000 C   0  0  1  0  0  0
   -2.5981   -1.5000    0.0000 C   0  0
  1  2  1  0
  2  3  1  0
  3  4  2  0
  4  5  1  0
  5  6  1  0
  6  7  2  0
  7  8  1  0
  8  9  2  0
  9 10  1  0
 10 11  1  0
 10 12  2  0
 12 13  1  0
 13 14  1  0
 14 15  1  0
 15 16  2  0
 16 17  1  0
 16 18  1  0
 18 19  1  0
 19 20  1  0
 20 21  2  0
 21 22  1  0
 21 23  1  0
 13 24  2  0
 24 25  1  0
 25 26  1  0
 26 12  1  0
 26 27  2  0
 27  8  1  0
  5 28  2  0
 28 29  1  0
 29 30  2  0
 30  3  1  0
 30 31  1  0
 31 32  1  0
 32 33  1  1
 32 34  1  0
 34 35  1  0
 35 36  1  0
 36 37  1  1
 36 38  1  0
 38 39  1  0
 38 40  1  0
 38 41  1  0
 41 32  1  0
 41 42  1  1
 42 29  1  0
M  END
> <Smiles>
COc1cc(/C=C/c2cc(O)c3c(C/C=C(\C)CCC=C(C)C)c[nH]c3c2)cc2c1O[C@]1(C)CC[C@@H](O)C(C)(C)[C@H]1C2

> <ID>
CHEMBL3233614

> <standard_value>
229.09

> <IC50_uM>
0.22909

> <Activity>
Yes

> <pIC50>
6.639993868

> <BCI>
1

$$$$

  SciTegic03012415362D

 33 32  0  0  0  0            999 V2000
    0.0007    0.0004    0.0000 C   0  0
    1.3000    0.7500    0.0000 C   0  0
    2.6000    0.0000    0.0000 C   0  0
    3.9000    0.7500    0.0000 C   0  0
    5.2000    0.0000    0.0000 C   0  0
    6.5000    0.7500    0.0000 C   0  0
    7.7999    0.0000    0.0000 C   0  0
    9.0999    0.7500    0.0000 C   0  0
   10.3999    0.0000    0.0000 C   0  0
   11.6999    0.7500    0.0000 C   0  0
   12.9999    0.0000    0.0000 C   0  0
   14.2999    0.7500    0.0000 C   0  0
   15.5999    0.0000    0.0000 C   0  0
   16.8999    0.7500    0.0000 C   0  0
   18.1999    0.0000    0.0000 C   0  0
   19.4998    0.7500    0.0000 C   0  0
   20.7998    0.0000    0.0000 C   0  0
   22.0998    0.7500    0.0000 C   0  0
   23.3998    0.0000    0.0000 P   0  3
   24.6998    0.7500    0.0000 C   0  0
   25.9998    0.0000    0.0000 C   0  0
   27.2998    0.7500    0.0000 C   0  0
   28.5998    0.0000    0.0000 C   0  0
   29.8998    0.7500    0.0000 C   0  0
   31.1998    0.0000    0.0000 C   0  0
   32.4998    0.7500    0.0000 C   0  0
   33.7997    0.0000    0.0000 C   0  0
   35.0997    0.7500    0.0000 C   0  0
   36.3997    0.0000    0.0000 C   0  0
   37.6997    0.7500    0.0000 C   0  0
   38.9997    0.0000    0.0000 C   0  0
   40.2997    0.7500    0.0000 C   0  0
   41.5990    0.0004    0.0000 C   0  0
  1  2  1  0
  2  3  1  0
  3  4  1  0
  4  5  1  0
  5  6  1  0
  6  7  1  0
  7  8  1  0
  8  9  1  0
  9 10  1  0
 10 11  1  0
 11 12  1  0
 12 13  1  0
 13 14  1  0
 14 15  1  0
 15 16  1  0
 16 17  1  0
 17 18  1  0
 18 19  1  0
 19 20  1  0
 20 21  1  0
 21 22  1  0
 22 23  1  0
 23 24  1  0
 24 25  1  0
 25 26  1  0
 26 27  1  0
 27 28  1  0
 28 29  1  0
 29 30  1  0
 30 31  1  0
 31 32  1  0
 32 33  1  0
M  CHG  1  19   1
M  END
> <Smiles>
CCCCCCCCCCCCCCCCCC[PH2+]CCCCCCCCCCCCCC.F[B-](F)(F)F

> <ID>
CHEMBL561678

> <standard_value>
234

> <IC50_uM>
0.234

> <Activity>
Yes

> <pIC50>
6.630784143

> <BCI>
1

> <RemovedSalts>
F[B-](F)(F)F

$$$$

  SciTegic03012415362D

 13 12  0  0  0  0            999 V2000
    0.0007    0.0004    0.0000 C   0  0
    1.3000    0.7500    0.0000 C   0  0
    2.6000    0.0000    0.0000 C   0  0
    3.9000    0.7500    0.0000 As  0  0
    3.9031    2.2508    0.0000 C   0  0
    5.2039    2.9994    0.0000 C   0  0
    5.2070    4.4994    0.0000 C   0  0
    5.2000    0.0000    0.0000 S   0  0
    6.5000    0.7500    0.0000 C   0  0
    7.7999    0.0000    0.0000 C   0  0  3  0  0  0
    7.7999   -1.5000    0.0000 O   0  0
    9.0999    0.7500    0.0000 C   0  0
   10.3992    0.0004    0.0000 O   0  0
  1  2  1  0
  2  3  1  0
  3  4  1  0
  4  5  1  0
  5  6  1  0
  6  7  1  0
  4  8  1  0
  8  9  1  0
  9 10  1  0
 10 11  1  4
 10 12  1  0
 12 13  1  0
M  END
> <Smiles>
CCC[As](CCC)SCC(O)CO

> <ID>
CHEMBL231841

> <standard_value>
234.42

> <IC50_uM>
0.23442

> <Activity>
Yes

> <pIC50>
6.630005338

> <BCI>
1

$$$$

  SciTegic03012415362D

 22 24  0  0  1  0            999 V2000
   -4.6575   -7.1727    0.0000 C   0  0
   -3.2441   -6.6705    0.0000 C   0  0
   -1.8348   -6.1949    0.0000 C   0  0  1  0  0  0
   -0.6797   -7.1519    0.0000 O   0  0
   -2.8675   -5.1069    0.0000 C   0  0  1  0  0  0
   -4.3525   -5.3058    0.0000 C   0  0
   -4.9243   -6.6925    0.0000 O   0  0
   -2.1519   -3.7886    0.0000 O   0  0
   -0.6928   -4.0817    0.0000 C   0  0  1  0  0  0
    0.3114   -2.9665    0.0000 N   0  0
    1.8032   -3.1233    0.0000 C   0  0
    2.4133   -1.7530    0.0000 C   0  0
    3.8805   -1.4410    0.0000 Br  0  0
    1.2990   -0.7500    0.0000 C   0  0
    1.2990    0.7500    0.0000 C   0  0
    2.5981    1.5000    0.0000 N   0  0
    0.0000    1.5000    0.0000 N   0  0
   -1.2990    0.7500    0.0000 C   0  0
   -1.2990   -0.7500    0.0000 N   0  0
    0.0000   -1.5000    0.0000 C   0  0
   -0.4810   -5.5489    0.0000 C   0  0  2  0  0  0
    0.8417   -6.2564    0.0000 O   0  0
  1  2  3  0
  2  3  1  0
  3  4  1  6
  3  5  1  0
  5  6  1  1
  6  7  1  0
  5  8  1  0
  8  9  1  0
  9 10  1  1
 10 11  1  0
 11 12  2  0
 12 13  1  0
 12 14  1  0
 14 15  2  0
 15 16  1  0
 15 17  1  0
 17 18  2  0
 18 19  1  0
 19 20  2  0
 20 14  1  0
 20 10  1  0
  9 21  1  0
 21  3  1  0
 21 22  1  6
M  END
> <Smiles>
C#C[C@@]1(O)[C@@H](CO)O[C@@H](n2cc(Br)c3c(N)ncnc32)[C@@H]1O

> <ID>
CHEMBL4287532

> <standard_value>
238

> <IC50_uM>
0.238

> <Activity>
Yes

> <pIC50>
6.623423043

> <BCI>
1

$$$$

  SciTegic03012415362D

 32 34  0  0  1  0            999 V2000
   -0.2237   -5.5078    0.0000 C   0  0
   -0.6890   -4.0818    0.0000 C   0  0
    0.3114   -2.9665    0.0000 C   0  0
    1.8032   -3.1233    0.0000 C   0  0
    2.5551   -4.4192    0.0000 S   0  0
    4.0559   -4.4171    0.0000 C   0  0
    4.8105   -5.7135    0.0000 C   0  0
    6.3105   -5.7082    0.0000 C   0  0
    7.0560   -4.4066    0.0000 C   0  0
    8.5568   -4.3983    0.0000 C   0  0
    9.3136   -5.6934    0.0000 O   0  0
    9.3008   -3.0949    0.0000 N   0  0
   10.8016   -3.0866    0.0000 C   0  0  1  0  0  0
   11.5456   -1.7831    0.0000 C   0  0
   13.0464   -1.7748    0.0000 C   0  0
   13.7905   -0.4714    0.0000 C   0  0
   15.2904   -0.4631    0.0000 O   0  0
   13.0337    0.8237    0.0000 O   0  0
   11.5615   -4.3808    0.0000 C   0  0
   13.0614   -4.3709    0.0000 O   0  0
   10.8205   -5.6851    0.0000 O   0  0
    6.3014   -3.1102    0.0000 C   0  0
    4.8015   -3.1154    0.0000 C   0  0
    2.4133   -1.7530    0.0000 N   0  0
    1.2990   -0.7500    0.0000 C   0  0
    1.2990    0.7500    0.0000 N   0  0
    0.0000    1.5000    0.0000 C   0  0
    0.0000    3.0000    0.0000 N   0  0
   -1.2990    0.7500    0.0000 N   0  0
   -1.2990   -0.7500    0.0000 C   0  0
   -2.5981   -1.5000    0.0000 N   0  0
    0.0000   -1.5000    0.0000 C   0  0
  1  2  1  0
  2  3  1  0
  3  4  2  0
  4  5  1  0
  5  6  1  0
  6  7  2  0
  7  8  1  0
  8  9  2  0
  9 10  1  0
 10 11  2  0
 10 12  1  0
 13 12  1  1
 13 14  1  0
 14 15  1  0
 15 16  1  0
 16 17  2  0
 16 18  1  0
 13 19  1  0
 19 20  2  0
 19 21  1  0
  9 22  1  0
 22 23  2  0
 23  6  1  0
  4 24  1  0
 24 25  1  0
 25 26  2  0
 26 27  1  0
 27 28  1  0
 27 29  2  0
 29 30  1  0
 30 31  1  0
 30 32  2  0
 32  3  1  0
 32 25  1  0
M  END
> <Smiles>
CCc1c(Sc2ccc(C(=O)N[C@@H](CCC(=O)O)C(=O)O)cc2)[nH]c2nc(N)nc(N)c12

> <ID>
CHEMBL438664

> <standard_value>
240

> <IC50_uM>
0.24

> <Activity>
Yes

> <pIC50>
6.619788758

> <BCI>
1

$$$$

  SciTegic03012415362D

 27 30  0  0  0  0            999 V2000
    2.5951   -3.0031    0.0000 C   0  0
    2.5973   -1.5031    0.0000 O   0  0
    1.2990   -0.7500    0.0000 C   0  0
    1.2990    0.7500    0.0000 C   0  0
    0.0000    1.5000    0.0000 C   0  0
   -1.2990    0.7500    0.0000 C   0  0
   -1.2990   -0.7500    0.0000 C   0  0
    0.0000   -1.5000    0.0000 C   0  0
   -2.7248   -1.2135    0.0000 C   0  0
   -3.1882   -2.6402    0.0000 O   0  0
   -3.6065    0.0000    0.0000 C   0  0
   -2.7248    1.2135    0.0000 C   0  0
   -3.3339    2.5831    0.0000 N   0  0
   -2.4537    3.7988    0.0000 C   0  0
   -3.0656    5.1692    0.0000 C   0  0
   -2.1854    6.3848    0.0000 C   0  0
   -2.7972    7.7553    0.0000 N   0  0
   -1.9176    8.9703    0.0000 C   0  0
   -4.2892    7.9101    0.0000 C   0  0
   -4.8257    2.7399    0.0000 C   0  0
   -5.4358    4.1102    0.0000 O   0  0
   -5.7073    1.5263    0.0000 C   0  0
   -7.1991    1.6831    0.0000 C   0  0
   -8.0808    0.4696    0.0000 C   0  0
   -7.4707   -0.9007    0.0000 C   0  0
   -5.9789   -1.0575    0.0000 C   0  0
   -5.0972    0.1560    0.0000 C   0  0
  1  2  1  0
  2  3  1  0
  3  4  2  0
  4  5  1  0
  5  6  2  0
  6  7  1  0
  7  8  2  0
  8  3  1  0
  7  9  1  0
  9 10  2  0
  9 11  1  0
 11 12  2  0
 12  6  1  0
 12 13  1  0
 13 14  1  0
 14 15  1  0
 15 16  1  0
 16 17  1  0
 17 18  1  0
 17 19  1  0
 13 20  1  0
 20 21  2  0
 20 22  1  0
 22 23  2  0
 23 24  1  0
 24 25  2  0
 25 26  1  0
 26 27  2  0
 27 11  1  0
 27 22  1  0
M  END
> <Smiles>
COc1ccc2c(c1)C(=O)c1c-2n(CCCN(C)C)c(=O)c2ccccc12

> <ID>
CHEMBL244977

> <standard_value>
240

> <IC50_uM>
0.24

> <Activity>
Yes

> <pIC50>
6.619788758

> <BCI>
1

$$$$

  SciTegic03012415362D

 30 33  0  0  0  0            999 V2000
   -0.2237   -5.5078    0.0000 C   0  0
   -0.6890   -4.0818    0.0000 O   0  0
    0.3114   -2.9665    0.0000 C   0  0
    1.8032   -3.1233    0.0000 N   0  0
    2.4133   -1.7530    0.0000 O   0  0
    1.2990   -0.7500    0.0000 C   0  0
    1.2990    0.7500    0.0000 C   0  0
    2.5981    1.5000    0.0000 C   0  0
    0.0000    1.5000    0.0000 C   0  0
   -1.2990    0.7500    0.0000 C   0  0
   -2.6003    1.4977    0.0000 C   0  0
   -3.8990    0.7455    0.0000 C   0  0
   -3.8978   -0.7554    0.0000 C   0  0
   -5.1965   -1.5076    0.0000 C   0  0
   -5.1953   -3.0085    0.0000 C   0  0
   -6.4064   -3.8717    0.0000 N   0  0
   -5.9388   -5.2970    0.0000 N   0  0
   -4.4388   -5.2927    0.0000 C   0  0
   -3.5537   -6.5037    0.0000 C   0  0
   -3.9793   -3.8648    0.0000 O   0  0
   -2.6030    2.9985    0.0000 C   0  0
   -3.9023    3.7481    0.0000 C   0  0
   -3.9029    5.2481    0.0000 C   0  0
   -2.6041    5.9986    0.0000 C   0  0
   -1.3048    5.2491    0.0000 C   0  0
   -0.0053    6.0000    0.0000 C   0  0
    1.2934    6.7505    0.0000 N   0  0
   -1.3042    3.7491    0.0000 C   0  0
   -1.2990   -0.7500    0.0000 C   0  0
    0.0000   -1.5000    0.0000 C   0  0
  1  2  1  0
  2  3  1  0
  3  4  2  0
  4  5  1  0
  5  6  1  0
  6  7  2  0
  7  8  1  0
  7  9  1  0
  9 10  2  0
 10 11  1  0
 11 12  2  0
 12 13  1  0
 13 14  1  0
 14 15  1  0
 15 16  2  0
 16 17  1  0
 17 18  2  0
 18 19  1  0
 18 20  1  0
 20 15  1  0
 11 21  1  0
 21 22  2  0
 22 23  1  0
 23 24  2  0
 24 25  1  0
 25 26  1  0
 26 27  3  0
 25 28  2  0
 28 21  1  0
 10 29  1  0
 29 30  2  0
 30  3  1  0
 30  6  1  0
M  END
> <Smiles>
COc1noc2c(C)cc(/C(=C\CCc3nnc(C)o3)c3cccc(C#N)c3)cc12

> <ID>
CHEMBL403462

> <standard_value>
240

> <IC50_uM>
0.24

> <Activity>
Yes

> <pIC50>
6.619788758

> <BCI>
1

$$$$

  SciTegic03012415362D

 54 59  0  0  1  0            999 V2000
   13.4836   -5.4148    0.0000 C   0  0
   12.0524   -4.9656    0.0000 O   0  0
   10.9466   -5.9803    0.0000 C   0  0
   11.2753   -7.4439    0.0000 C   0  0
   10.1722   -8.4603    0.0000 C   0  0
   10.4981   -9.9254    0.0000 C   0  0
    9.3930  -10.9408    0.0000 C   0  0
    9.7189  -12.4058    0.0000 C   0  0
   11.1499  -12.8554    0.0000 O   0  0
    8.6137  -13.4213    0.0000 N   0  0
    8.9373  -14.8860    0.0000 C   0  0
    7.8307  -15.8986    0.0000 C   0  0
    6.4005  -15.4466    0.0000 N   0  0
    5.2912  -16.4575    0.0000 C   0  0
    5.6123  -17.9227    0.0000 O   0  0
    3.8607  -16.0032    0.0000 C   0  0
    2.7506  -17.0119    0.0000 C   0  0
    1.3219  -16.5550    0.0000 C   0  0
    0.2132  -17.5666    0.0000 O   0  0
    0.5339  -19.0319    0.0000 C   0  0
    1.0033  -15.0892    0.0000 C   0  0
   -0.4253  -14.6290    0.0000 O   0  0
   -0.7418  -13.1628    0.0000 C   0  0
    2.1134  -14.0804    0.0000 C   0  0
    1.7976  -12.6131    0.0000 O   0  0
    2.9091  -11.6059    0.0000 C   0  0
    3.5421  -14.5374    0.0000 C   0  0
    6.0768  -13.9819    0.0000 C   0  0
    7.1834  -12.9693    0.0000 C   0  0
    8.7404   -8.0133    0.0000 C   0  0
    8.4117   -6.5497    0.0000 C   0  0
    9.5148   -5.5332    0.0000 C   0  0
    9.1829   -4.0695    0.0000 O   0  0
    7.7497   -3.6242    0.0000 C   0  0
    7.4178   -2.1605    0.0000 C   0  0
    5.9845   -1.7152    0.0000 C   0  0
    5.6526   -0.2515    0.0000 O   0  0
    4.2194    0.1938    0.0000 C   0  0
    3.1198   -0.8265    0.0000 C   0  0
    1.6852   -0.3846    0.0000 C   0  0
    1.3514    1.0778    0.0000 C   0  0
    2.4522    2.0983    0.0000 C   0  0
    3.8856    1.6562    0.0000 C   0  0
    4.9837    2.6793    0.0000 O   0  0
    4.6478    4.1412    0.0000 C   0  0
    0.0000    1.7286    0.0000 C   0  0
    0.0000    3.2286    0.0000 O   0  0
   -1.3515    1.0777    0.0000 N   0  0
   -2.6395    1.8472    0.0000 C   0  0
   -3.7691    0.8603    0.0000 C   0  0
   -3.1796   -0.5190    0.0000 C   0  0
   -1.6852   -0.3847    0.0000 C   0  0  1  0  0  0
   -0.7500   -1.5574    0.0000 C   0  0
    0.7500   -1.5574    0.0000 N   0  0
  1  2  1  0
  2  3  1  0
  3  4  2  0
  4  5  1  0
  5  6  1  0
  6  7  2  0
  7  8  1  0
  8  9  2  0
  8 10  1  0
 10 11  1  0
 11 12  1  0
 12 13  1  0
 13 14  1  0
 14 15  2  0
 14 16  1  0
 16 17  2  0
 17 18  1  0
 18 19  1  0
 19 20  1  0
 18 21  2  0
 21 22  1  0
 22 23  1  0
 21 24  1  0
 24 25  1  0
 25 26  1  0
 24 27  2  0
 27 16  1  0
 13 28  1  0
 28 29  1  0
 29 10  1  0
  5 30  2  0
 30 31  1  0
 31 32  2  0
 32  3  1  0
 32 33  1  0
 33 34  1  0
 34 35  1  0
 35 36  1  0
 36 37  1  0
 37 38  1  0
 38 39  2  0
 39 40  1  0
 40 41  2  0
 41 42  1  0
 42 43  2  0
 43 38  1  0
 43 44  1  0
 44 45  1  0
 41 46  1  0
 46 47  2  0
 46 48  1  0
 48 49  1  0
 49 50  1  0
 50 51  1  0
 52 51  1  6
 52 48  1  0
 52 53  1  0
 53 54  2  0
 54 40  1  0
M  END
> <Smiles>
COc1cc(/C=C/C(=O)N2CCN(C(=O)c3cc(OC)c(OC)c(OC)c3)CC2)ccc1OCCCOc1cc2c(cc1OC)C(=O)N1CCC[C@H]1C=N2

> <ID>
CHEMBL1240647

> <standard_value>
240

> <IC50_uM>
0.24

> <Activity>
Yes

> <pIC50>
6.619788758

> <BCI>
1

$$$$

  SciTegic03012415362D

 24 26  0  0  1  0            999 V2000
    4.7963   -5.7295    0.0000 C   0  0
    4.0505   -4.4281    0.0000 C   0  0
    4.8050   -3.1317    0.0000 C   0  0
    2.5497   -4.4224    0.0000 C   0  0  1  0  0  0
    1.8032   -3.1233    0.0000 C   0  0
    2.4133   -1.7530    0.0000 N   0  0
    1.2990   -0.7500    0.0000 C   0  0
    1.2990    0.7500    0.0000 C   0  0
    0.0000    1.5000    0.0000 C   0  0
   -1.2990    0.7500    0.0000 C   0  0
   -1.2990   -0.7500    0.0000 C   0  0
    0.0000   -1.5000    0.0000 C   0  0
    0.3114   -2.9665    0.0000 O   0  0
    1.7974   -5.7210    0.0000 N   0  0
    2.4137   -7.0746    0.0000 C   0  0
    1.2954   -8.0744    0.0000 C   0  0
    1.4437   -9.5653    0.0000 C   0  0
    0.2252  -10.4414    0.0000 C   0  0
    0.3738  -11.9349    0.0000 C   0  0
    1.7409  -12.5522    0.0000 O   0  0
   -0.8448  -12.8110    0.0000 N   0  0
   -0.6963  -14.3037    0.0000 O   0  0
   -0.0010   -7.3198    0.0000 N   0  0
    0.3160   -5.8537    0.0000 N   0  0
  1  2  1  0
  2  3  1  0
  4  2  1  6
  4  5  1  0
  5  6  2  0
  6  7  1  0
  7  8  2  0
  8  9  1  0
  9 10  2  0
 10 11  1  0
 11 12  2  0
 12  7  1  0
 12 13  1  0
 13  5  1  0
  4 14  1  0
 14 15  1  0
 15 16  2  0
 16 17  1  0
 17 18  2  0
 18 19  1  0
 19 20  2  0
 19 21  1  0
 21 22  1  0
 16 23  1  0
 23 24  2  0
 24 14  1  0
M  END
> <Smiles>
CC(C)[C@@H](c1nc2ccccc2o1)n1cc(/C=C/C(=O)NO)nn1

> <ID>
CHEMBL2036482

> <standard_value>
240

> <IC50_uM>
0.24

> <Activity>
Yes

> <pIC50>
6.619788758

> <BCI>
1

$$$$

  SciTegic03012415362D

 30 33  0  0  0  0            999 V2000
    8.7387   -0.6604    0.0000 C   0  0
    7.7154    0.4363    0.0000 C   0  0
    6.2529    0.0993    0.0000 O   0  0
    5.2291    1.1967    0.0000 C   0  0
    5.6678    2.6312    0.0000 O   0  0
    3.7691    0.8603    0.0000 C   0  0
    3.1796   -0.5190    0.0000 C   0  0
    3.9490   -1.8066    0.0000 Cl  0  0
    1.6852   -0.3846    0.0000 C   0  0
    1.3514    1.0778    0.0000 C   0  0  3  0  0  0
    2.6395    1.8472    0.0000 N   0  0
    2.7770    3.3391    0.0000 C   0  0
    4.1398    3.9679    0.0000 C   0  0
    4.2797    5.4614    0.0000 C   0  0
    5.6430    6.0871    0.0000 C   0  0
    5.7859    7.5811    0.0000 O   0  0
    7.1501    8.2048    0.0000 C   0  0
    6.8665    5.2193    0.0000 C   0  0
    6.7267    3.7258    0.0000 C   0  0
    7.9490    2.8550    0.0000 O   0  0
    7.8071    1.3618    0.0000 C   0  0
    5.3634    3.1001    0.0000 C   0  0
    0.0000    1.7286    0.0000 C   0  0
   -0.2015    3.2154    0.0000 O   0  0
   -1.6774    3.4832    0.0000 N   0  0
   -2.3882    2.1623    0.0000 C   0  0
   -1.3515    1.0777    0.0000 C   0  0
   -1.6852   -0.3847    0.0000 C   0  0
   -0.7500   -1.5574    0.0000 C   0  0
    0.7500   -1.5574    0.0000 C   0  0
  1  2  1  0
  2  3  1  0
  3  4  1  0
  4  5  2  0
  4  6  1  0
  6  7  2  0
  7  8  1  0
  7  9  1  0
  9 10  2  0
 10 11  1  4
 11  6  1  0
 11 12  1  0
 12 13  1  0
 13 14  2  0
 14 15  1  0
 15 16  1  0
 16 17  1  0
 15 18  2  0
 18 19  1  0
 19 20  1  0
 20 21  1  0
 19 22  2  0
 22 13  1  0
 10 23  1  0
 23 24  1  0
 24 25  1  0
 25 26  2  0
 26 27  1  0
 27 23  2  0
 27 28  1  0
 28 29  1  0
 29 30  1  0
 30  9  1  0
M  END
> <Smiles>
CCOC(=O)c1c(Cl)c2c(n1Cc1cc(OC)cc(OC)c1)-c1oncc1CCC2

> <ID>
CHEMBL4740083

> <standard_value>
240

> <IC50_uM>
0.24

> <Activity>
Yes

> <pIC50>
6.619788758

> <BCI>
1

$$$$

  SciTegic03012415362D

 22 25  0  0  0  0            999 V2000
    2.5981   -1.5000    0.0000 O   0  0
    1.2990   -0.7500    0.0000 C   0  0
    1.2990    0.7500    0.0000 C   0  0
    0.0000    1.5000    0.0000 C   0  0  3  0  0  0
    0.0000    3.0008    0.0000 C   0  0
    1.2978    3.7529    0.0000 C   0  0
    1.2954    5.2529    0.0000 C   0  0
   -0.0048    6.0009    0.0000 C   0  0
   -1.3026    5.2488    0.0000 C   0  0
   -1.3002    3.7488    0.0000 C   0  0
   -1.2990    0.7500    0.0000 C   0  0
   -1.2990   -0.7500    0.0000 C   0  0
   -2.5981   -1.5000    0.0000 N   0  0
   -2.5981   -3.0000    0.0000 C   0  0
   -3.8971   -3.7500    0.0000 C   0  0
   -3.8971   -5.2500    0.0000 C   0  0
   -2.5980   -6.0000    0.0000 C   0  0
   -2.5980   -7.5000    0.0000 Br  0  0
   -1.2990   -5.2500    0.0000 C   0  0
   -1.2990   -3.7500    0.0000 C   0  0
    0.0000   -3.0000    0.0000 C   0  0
    0.0000   -1.5000    0.0000 C   0  0
  1  2  2  0
  2  3  1  0
  3  4  1  0
  4  5  1  4
  5  6  2  0
  6  7  1  0
  7  8  2  0
  8  9  1  0
  9 10  2  0
 10  5  1  0
  4 11  1  0
 11 12  1  0
 12 13  2  0
 13 14  1  0
 14 15  2  0
 15 16  1  0
 16 17  2  0
 17 18  1  0
 17 19  1  0
 19 20  2  0
 20 14  1  0
 20 21  1  0
 21 22  2  0
 22 12  1  0
 22  2  1  0
M  END
> <Smiles>
O=C1CC(c2ccccc2)Cc2nc3ccc(Br)cc3cc21

> <ID>
CHEMBL4643080

> <standard_value>
241

> <IC50_uM>
0.241

> <Activity>
Yes

> <pIC50>
6.617982957

> <BCI>
1

$$$$

  SciTegic03012415362D

 20 23  0  0  0  0            999 V2000
    4.8089   -4.6669    0.0000 C   0  0
    4.2010   -3.2956    0.0000 C   0  0
    4.9531   -1.9978    0.0000 C   0  0
    3.9511   -0.8815    0.0000 C   0  0
    2.5987   -1.5004    0.0000 C   0  0
    1.2990   -0.7500    0.0000 C   0  0
    1.2990    0.7500    0.0000 C   0  0
    0.0000    1.5000    0.0000 C   0  0
    0.0000    3.0000    0.0000 O   0  0
   -1.2990    0.7500    0.0000 C   0  0
   -2.5981    1.5000    0.0000 C   0  0
   -3.8971    0.7500    0.0000 C   0  0
   -3.8971   -0.7500    0.0000 C   0  0
   -2.5981   -1.5000    0.0000 C   0  0
   -1.2990   -0.7500    0.0000 C   0  0
    0.0000   -1.5000    0.0000 N   0  0
   -5.3228   -1.2136    0.0000 O   0  0
   -6.2045    0.0000    0.0000 C   0  0
   -5.3229    1.2135    0.0000 O   0  0
    2.7343   -2.9815    0.0000 Se  0  0
  1  2  1  0
  2  3  2  0
  3  4  1  0
  4  5  2  0
  5  6  1  0
  6  7  2  0
  7  8  1  0
  8  9  2  0
  8 10  1  0
 10 11  2  0
 11 12  1  0
 12 13  2  0
 13 14  1  0
 14 15  2  0
 15 10  1  0
 15 16  1  0
 16  6  1  0
 13 17  1  0
 17 18  1  0
 18 19  1  0
 19 12  1  0
  5 20  1  0
 20  2  1  0
M  END
> <Smiles>
Cc1ccc(-c2cc(=O)c3cc4c(cc3[nH]2)OCO4)[se]1

> <ID>
CHEMBL1910697

> <standard_value>
245.47

> <IC50_uM>
0.24547

> <Activity>
Yes

> <pIC50>
6.610001577

> <BCI>
1

$$$$

  SciTegic03012415362D

 29 32  0  0  0  0            999 V2000
    2.5951   -3.0031    0.0000 C   0  0
    2.5973   -1.5031    0.0000 O   0  0
    1.2990   -0.7500    0.0000 C   0  0
    1.2990    0.7500    0.0000 C   0  0
    0.0000    1.5000    0.0000 N   0  0
   -1.2990    0.7500    0.0000 C   0  0
   -1.2990   -0.7500    0.0000 C   0  0
    0.0000   -1.5000    0.0000 C   0  0
   -2.7248   -1.2135    0.0000 C   0  0
   -3.1882   -2.6402    0.0000 O   0  0
   -3.6065    0.0000    0.0000 C   0  0
   -2.7248    1.2135    0.0000 C   0  0
   -3.3339    2.5831    0.0000 N   0  0
   -2.4537    3.7988    0.0000 C   0  0
   -3.0656    5.1692    0.0000 C   0  0
   -2.1854    6.3848    0.0000 C   0  0
   -2.7972    7.7553    0.0000 N   0  0
   -1.9171    8.9709    0.0000 C   0  0
   -2.5286   10.3406    0.0000 C   0  0
   -0.4251    8.8161    0.0000 C   0  0
   -4.8257    2.7399    0.0000 C   0  0
   -5.4358    4.1102    0.0000 O   0  0
   -5.7073    1.5263    0.0000 C   0  0
   -7.1991    1.6831    0.0000 C   0  0
   -8.0808    0.4696    0.0000 C   0  0
   -9.5726    0.6264    0.0000 F   0  0
   -7.4707   -0.9007    0.0000 C   0  0
   -5.9789   -1.0575    0.0000 C   0  0
   -5.0972    0.1560    0.0000 C   0  0
  1  2  1  0
  2  3  1  0
  3  4  2  0
  4  5  1  0
  5  6  2  0
  6  7  1  0
  7  8  2  0
  8  3  1  0
  7  9  1  0
  9 10  2  0
  9 11  1  0
 11 12  2  0
 12  6  1  0
 12 13  1  0
 13 14  1  0
 14 15  1  0
 15 16  1  0
 16 17  1  0
 17 18  1  0
 18 19  1  0
 18 20  1  0
 13 21  1  0
 21 22  2  0
 21 23  1  0
 23 24  2  0
 24 25  1  0
 25 26  1  0
 25 27  2  0
 27 28  1  0
 28 29  2  0
 29 11  1  0
 29 23  1  0
M  END
> <Smiles>
COc1cnc2c(c1)C(=O)c1c-2n(CCCNC(C)C)c(=O)c2cc(F)ccc12

> <ID>
CHEMBL4085641

> <standard_value>
248

> <IC50_uM>
0.248

> <Activity>
Yes

> <pIC50>
6.605548319

> <BCI>
1

$$$$

  SciTegic03012415362D

 23 26  0  0  0  0            999 V2000
    3.8912   -5.2570    0.0000 N   0  0
    3.8933   -3.7570    0.0000 C   0  0
    2.5951   -3.0039    0.0000 C   0  0
    2.5973   -1.5031    0.0000 C   0  0
    1.2990   -0.7500    0.0000 N   0  0
    1.2990    0.7500    0.0000 C   0  0
    0.0000    1.5000    0.0000 C   0  0
   -1.2990    0.7500    0.0000 C   0  0
   -2.5981    1.5000    0.0000 C   0  0
   -3.8971    0.7500    0.0000 C   0  0
   -3.8971   -0.7500    0.0000 C   0  0
   -2.5981   -1.5000    0.0000 C   0  0
   -1.2990   -0.7500    0.0000 C   0  0
    0.0000   -1.5000    0.0000 C   0  0
    0.0000   -3.0000    0.0000 O   0  0
    0.3114    2.9665    0.0000 C   0  0
   -0.6924    4.0811    0.0000 O   0  0
    1.8032    3.1233    0.0000 C   0  0
    2.6837    4.3363    0.0000 C   0  0
    4.1755    4.1795    0.0000 C   0  0
    4.7856    2.8092    0.0000 C   0  0
    3.9040    1.5957    0.0000 C   0  0
    2.4133    1.7530    0.0000 C   0  0
  1  2  1  0
  2  3  1  0
  3  4  1  0
  4  5  1  0
  5  6  1  0
  6  7  2  0
  7  8  1  0
  8  9  2  0
  9 10  1  0
 10 11  2  0
 11 12  1  0
 12 13  2  0
 13  8  1  0
 13 14  1  0
 14  5  1  0
 14 15  2  0
  7 16  1  0
 16 17  2  0
 16 18  1  0
 18 19  2  0
 19 20  1  0
 20 21  2  0
 21 22  1  0
 22 23  2  0
 23 18  1  0
 23  6  1  0
M  END
> <Smiles>
NCCCn1c2c(c3ccccc3c1=O)C(=O)c1ccccc1-2

> <ID>
CHEMBL213072

> <standard_value>
250

> <IC50_uM>
0.25

> <Activity>
Yes

> <pIC50>
6.602059991

> <BCI>
1

$$$$

  SciTegic03012415362D

 25 27  0  0  0  0            999 V2000
    2.5951   -3.0031    0.0000 C   0  0
    2.5973   -1.5031    0.0000 O   0  0
    1.2990   -0.7500    0.0000 C   0  0
    1.2990    0.7500    0.0000 C   0  0
    0.0000    1.5000    0.0000 C   0  0
   -1.2990    0.7500    0.0000 C   0  0
   -2.2638    1.8997    0.0000 C   0  0
   -3.7423    1.6417    0.0000 S   0  0
   -4.7057    2.7925    0.0000 C   0  0
   -6.1841    2.5345    0.0000 C   0  0
   -7.1470    3.6847    0.0000 N   0  0
   -1.7512    3.3104    0.0000 C   0  0
   -2.7160    4.4589    0.0000 C   0  0
   -2.2037    5.8687    0.0000 C   0  0
   -0.7266    6.1300    0.0000 C   0  0
    0.2382    4.9814    0.0000 C   0  0
   -0.2741    3.5716    0.0000 C   0  0
   -2.7783    0.4899    0.0000 C   0  0
   -1.8151   -0.6600    0.0000 C   0  0
   -2.3294   -2.0691    0.0000 C   0  0
   -3.8069   -2.3283    0.0000 C   0  0
   -4.7700   -1.1783    0.0000 C   0  0
   -4.2558    0.2308    0.0000 C   0  0
   -1.2990   -0.7500    0.0000 C   0  0
    0.0000   -1.5000    0.0000 C   0  0
  1  2  1  0
  2  3  1  0
  3  4  2  0
  4  5  1  0
  5  6  2  0
  6  7  1  0
  7  8  1  0
  8  9  1  0
  9 10  1  0
 10 11  1  0
  7 12  1  0
 12 13  2  0
 13 14  1  0
 14 15  2  0
 15 16  1  0
 16 17  2  0
 17 12  1  0
  7 18  1  0
 18 19  2  0
 19 20  1  0
 20 21  2  0
 21 22  1  0
 22 23  2  0
 23 18  1  0
  6 24  1  0
 24 25  2  0
 25  3  1  0
M  END
> <Smiles>
COc1ccc(C(SCCN)(c2ccccc2)c2ccccc2)cc1

> <ID>
CHEMBL1818529

> <standard_value>
250

> <IC50_uM>
0.25

> <Activity>
Yes

> <pIC50>
6.602059991

> <BCI>
1

$$$$

  SciTegic03012415362D

 50 57  0  0  0  0            999 V2000
    3.8805   -1.4410    0.0000 O   0  0
    2.4133   -1.7530    0.0000 C   0  0
    1.2990   -0.7500    0.0000 C   0  0
    1.2990    0.7500    0.0000 C   0  0
    0.0000    1.5000    0.0000 C   0  0
   -1.2990    0.7500    0.0000 C   0  0
   -1.2990   -0.7500    0.0000 C   0  0
    0.0000   -1.5000    0.0000 C   0  0
    0.3114   -2.9665    0.0000 C   0  0
    1.8032   -3.1233    0.0000 C   0  0
    2.4135   -4.4923    0.0000 C   0  0
    3.9053   -4.6492    0.0000 C   0  0
    4.5154   -6.0195    0.0000 C   0  0
    3.6337   -7.2330    0.0000 C   0  0
    2.1419   -7.0762    0.0000 C   0  0
    1.5318   -5.7059    0.0000 C   0  0
    0.0400   -5.5491    0.0000 C   0  0
   -0.8417   -6.7626    0.0000 O   0  0
   -0.5701   -4.1788    0.0000 N   0  0
   -2.0630   -4.0243    0.0000 C   0  0
   -2.9439   -5.2394    0.0000 C   0  0
   -4.4368   -5.0850    0.0000 C   0  0
   -5.3177   -6.3001    0.0000 N   0  0
   -6.8105   -6.1457    0.0000 C   0  0
   -7.6915   -7.3608    0.0000 C   0  0
   -9.1843   -7.2064    0.0000 C   0  0
  -10.0653   -8.4214    0.0000 C   0  0
  -11.5581   -8.2670    0.0000 N   0  0
  -12.4391   -9.4821    0.0000 C   0  0
  -13.9319   -9.3277    0.0000 C   0  0
  -14.8128  -10.5428    0.0000 C   0  0
  -16.3057  -10.3884    0.0000 N   0  0
  -17.1879  -11.6015    0.0000 C   0  0
  -18.6797  -11.4441    0.0000 C   0  0
  -19.2892  -10.0736    0.0000 C   0  0
  -20.7810   -9.9162    0.0000 C   0  0
  -21.3905   -8.5457    0.0000 C   0  0
  -20.5084   -7.3325    0.0000 C   0  0
  -19.0167   -7.4899    0.0000 C   0  0
  -18.4071   -8.8604    0.0000 C   0  0
  -16.9154   -9.0178    0.0000 C   0  0
  -16.0333   -7.8046    0.0000 O   0  0
  -19.2902  -12.8134    0.0000 C   0  0
  -20.7576  -13.1246    0.0000 O   0  0
  -18.1759  -13.8175    0.0000 C   0  0
  -18.1771  -15.3164    0.0000 C   0  0
  -16.8783  -16.0669    0.0000 C   0  0
  -15.5790  -15.3174    0.0000 C   0  0
  -15.5784  -13.8174    0.0000 C   0  0
  -16.8766  -13.0680    0.0000 C   0  0
  1  2  2  0
  2  3  1  0
  3  4  2  0
  4  5  1  0
  5  6  2  0
  6  7  1  0
  7  8  2  0
  8  3  1  0
  8  9  1  0
  9 10  2  0
 10  2  1  0
 10 11  1  0
 11 12  2  0
 12 13  1  0
 13 14  2  0
 14 15  1  0
 15 16  2  0
 16 11  1  0
 16 17  1  0
 17 18  2  0
 17 19  1  0
 19  9  1  0
 19 20  1  0
 20 21  1  0
 21 22  1  0
 22 23  1  0
 23 24  1  0
 24 25  1  0
 25 26  1  0
 26 27  1  0
 27 28  1  0
 28 29  1  0
 29 30  1  0
 30 31  1  0
 31 32  1  0
 32 33  1  0
 33 34  2  0
 34 35  1  0
 35 36  2  0
 36 37  1  0
 37 38  2  0
 38 39  1  0
 39 40  2  0
 40 35  1  0
 40 41  1  0
 41 32  1  0
 41 42  2  0
 34 43  1  0
 43 44  2  0
 43 45  1  0
 45 46  2  0
 46 47  1  0
 47 48  2  0
 48 49  1  0
 49 50  2  0
 50 45  1  0
 50 33  1  0
M  END
> <Smiles>
O=C1c2ccccc2-c2c1c1ccccc1c(=O)n2CCCNCCCCNCCCn1c2c(c3ccccc3c1=O)C(=O)c1ccccc1-2

> <ID>
CHEMBL402878

> <standard_value>
251

> <IC50_uM>
0.251

> <Activity>
Yes

> <pIC50>
6.600326279

> <BCI>
1

$$$$

  SciTegic03012415362D

 27 31  0  0  1  0            999 V2000
    5.1996   -1.4928    0.0000 C   0  0
    3.8990   -0.7455    0.0000 O   0  0
    2.6003   -1.4977    0.0000 C   0  0
    2.6030   -2.9977    0.0000 O   0  0
    1.2990   -0.7500    0.0000 C   0  0
    1.2990    0.7500    0.0000 C   0  0
    0.0000    1.5000    0.0000 O   0  0
   -1.2990    0.7500    0.0000 C   0  0  2  0  0  0
   -2.7248    1.2135    0.0000 O   0  0
   -3.6065    0.0000    0.0000 C   0  0  1  0  0  0
   -5.0323   -0.4750    0.0000 C   0  0
   -6.2495    0.3988    0.0000 C   0  0
   -6.1021    1.8923    0.0000 C   0  0
   -7.3194    2.7689    0.0000 C   0  0
   -7.1691    4.2613    0.0000 C   0  0
   -5.8014    4.8773    0.0000 C   0  0
   -5.6511    6.3698    0.0000 O   0  0
   -4.5841    4.0009    0.0000 C   0  0
   -4.7344    2.5085    0.0000 C   0  0
   -5.0337   -1.9750    0.0000 C   0  0
   -6.2480   -2.8556    0.0000 O   0  0
   -3.6075   -2.4398    0.0000 O   0  0
   -2.7248   -1.2135    0.0000 C   0  0  2  0  0  0
   -2.2669   -2.7872    0.0000 C   0  0
   -0.7751   -2.9439    0.0000 C   0  0
    0.0000   -1.5000    0.0000 C   0  0  1  0  0  0
   -1.2990   -0.7500    0.0000 C   0  0  2  0  0  0
  1  2  1  0
  2  3  1  0
  3  4  2  0
  3  5  1  0
  5  6  2  0
  6  7  1  0
  8  7  1  1
  8  9  1  0
 10  9  1  6
 10 11  1  0
 11 12  2  0
 12 13  1  0
 13 14  2  0
 14 15  1  0
 15 16  2  0
 16 17  1  0
 16 18  1  0
 18 19  2  0
 19 13  1  0
 11 20  1  0
 20 21  2  0
 20 22  1  0
 23 22  1  6
 23 10  1  0
 23 24  1  0
 24 25  2  0
 26 25  1  1
 26  5  1  0
 27 26  1  1
 27  8  1  0
 27 23  1  0
M  END
> <Smiles>
COC(=O)C1=CO[C@@H]2O[C@H]3/C(=C\c4ccc(O)cc4)C(=O)O[C@]34C=C[C@H]1[C@H]24

> <ID>
CHEMBL250261

> <standard_value>
257.04

> <IC50_uM>
0.25704

> <Activity>
Yes

> <pIC50>
6.589999287

> <BCI>
1

$$$$

  SciTegic03012415362D

 32 36  0  0  1  0            999 V2000
    3.8983   -0.7459    0.0000 C   0  0
    2.6003   -1.4977    0.0000 O   0  0
    1.2990   -0.7500    0.0000 C   0  0
    1.2990    0.7500    0.0000 C   0  0
    0.0000    1.5000    0.0000 C   0  0
   -0.0031    3.0008    0.0000 C   0  0
   -1.3039    3.7494    0.0000 C   0  0
   -1.3070    5.2502    0.0000 C   0  0
   -2.6061    6.0003    0.0000 C   0  0
   -2.6061    7.5003    0.0000 C   0  0
   -3.9052    8.2502    0.0000 O   0  0
   -1.3071    8.2503    0.0000 C   0  0
   -0.9957    9.7168    0.0000 C   0  0
    0.4961    9.8736    0.0000 C   0  0
    1.1062    8.5033    0.0000 N   0  0
   -0.0080    7.5003    0.0000 C   0  0
   -0.0080    6.0003    0.0000 C   0  0
   -1.2990    0.7500    0.0000 C   0  0
   -1.2990   -0.7500    0.0000 C   0  0
    0.0000   -1.5000    0.0000 C   0  0
    0.0000   -3.0000    0.0000 O   0  0
   -1.2990   -3.7500    0.0000 C   0  0  2  0  0  0
    0.0000   -4.5000    0.0000 C   0  0
   -1.2990   -5.2500    0.0000 C   0  0
   -2.5981   -6.0000    0.0000 C   0  0
   -3.8971   -5.2500    0.0000 C   0  0  1  0  0  0
   -5.1961   -6.0000    0.0000 O   0  0
   -3.8971   -3.7500    0.0000 C   0  0
   -3.8617   -2.2504    0.0000 C   0  0
   -5.1782   -4.5303    0.0000 C   0  0
   -2.5981   -3.0000    0.0000 C   0  0  1  0  0  0
   -2.5981   -1.5000    0.0000 C   0  0
  1  2  1  0
  2  3  1  0
  3  4  2  0
  4  5  1  0
  5  6  1  0
  6  7  2  0
  7  8  1  0
  8  9  2  0
  9 10  1  0
 10 11  1  0
 10 12  2  0
 12 13  1  0
 13 14  2  0
 14 15  1  0
 15 16  1  0
 16 12  1  0
 16 17  2  0
 17  8  1  0
  5 18  2  0
 18 19  1  0
 19 20  2  0
 20  3  1  0
 20 21  1  0
 21 22  1  0
 22 23  1  1
 22 24  1  0
 24 25  1  0
 25 26  1  0
 26 27  1  1
 26 28  1  0
 28 29  1  0
 28 30  1  0
 28 31  1  0
 31 22  1  0
 31 32  1  1
 32 19  1  0
M  END
> <Smiles>
COc1cc(/C=C/c2cc(O)c3cc[nH]c3c2)cc2c1O[C@]1(C)CC[C@@H](O)C(C)(C)[C@H]1C2

> <ID>
CHEMBL3233611

> <standard_value>
257.04

> <IC50_uM>
0.25704

> <Activity>
Yes

> <pIC50>
6.589999287

> <BCI>
1

$$$$

  SciTegic03012415362D

 24 25  0  0  0  0            999 V2000
    2.5951   -3.0031    0.0000 C   0  0
    2.5973   -1.5031    0.0000 O   0  0
    1.2990   -0.7500    0.0000 C   0  0
    1.2990    0.7500    0.0000 C   0  0
    0.0000    1.5000    0.0000 C   0  0
   -1.2990    0.7500    0.0000 C   0  0
   -2.5973    1.5031    0.0000 O   0  0
   -2.5951    3.0031    0.0000 C   0  0
   -1.2990   -0.7500    0.0000 C   0  0
   -2.5972   -1.5031    0.0000 C   0  0
   -2.5951   -3.0039    0.0000 C   0  0
   -3.8933   -3.7570    0.0000 C   0  0
   -5.1937   -3.0093    0.0000 O   0  0
   -3.8912   -5.2578    0.0000 N   0  0
   -5.1894   -6.0109    0.0000 N   0  0
   -5.1872   -7.5117    0.0000 C   0  0
   -6.4854   -8.2648    0.0000 C   0  0
   -6.4855   -9.7649    0.0000 C   0  0
   -7.7845  -10.5149    0.0000 C   0  0
   -9.0836   -9.7649    0.0000 C   0  0
  -10.3826  -10.5150    0.0000 Cl  0  0
   -9.0836   -8.2649    0.0000 C   0  0
   -7.7846   -7.5149    0.0000 C   0  0
    0.0000   -1.5000    0.0000 C   0  0
  1  2  1  0
  2  3  1  0
  3  4  2  0
  4  5  1  0
  5  6  2  0
  6  7  1  0
  7  8  1  0
  6  9  1  0
  9 10  1  0
 10 11  2  0
 11 12  1  0
 12 13  2  0
 12 14  1  0
 14 15  1  0
 15 16  2  0
 16 17  1  0
 17 18  2  0
 18 19  1  0
 19 20  2  0
 20 21  1  0
 20 22  1  0
 22 23  2  0
 23 17  1  0
  9 24  2  0
 24  3  1  0
M  END
> <Smiles>
COc1ccc(OC)c(/C=C/C(=O)N/N=C/c2ccc(Cl)cc2)c1

> <ID>
CHEMBL2295982

> <standard_value>
258

> <IC50_uM>
0.258

> <Activity>
Yes

> <pIC50>
6.588380294

> <BCI>
1

$$$$

  SciTegic03012415362D

 32 35  0  0  0  0            999 V2000
    2.5951   -3.0031    0.0000 C   0  0
    2.5973   -1.5031    0.0000 O   0  0
    1.2990   -0.7500    0.0000 C   0  0
    1.2990    0.7500    0.0000 C   0  0
    0.0000    1.5000    0.0000 C   0  0
    0.0000    3.0000    0.0000 C   0  0
   -1.2990    0.7500    0.0000 C   0  0
   -1.2990   -0.7500    0.0000 C   0  0
   -2.5987   -1.5004    0.0000 C   0  0
   -2.7343   -2.9815    0.0000 N   0  0
   -4.2010   -3.2957    0.0000 N   0  0
   -4.8110   -4.6641    0.0000 C   0  0
   -6.3036   -4.8212    0.0000 C   0  0
   -7.7954   -4.9782    0.0000 N   0  0
   -4.9530   -1.9978    0.0000 C   0  0
   -3.9511   -0.8815    0.0000 C   0  0
   -4.2568    0.5878    0.0000 C   0  0
   -3.2235    1.6679    0.0000 C   0  0
   -3.6446    3.1076    0.0000 C   0  0
   -5.1020    3.4627    0.0000 N   0  0
   -6.1382    2.3782    0.0000 C   0  0
   -7.5963    2.7335    0.0000 C   0  0
   -8.0198    4.1725    0.0000 C   0  0
   -9.4777    4.5253    0.0000 C   0  0
  -10.5122    3.4391    0.0000 C   0  0
  -11.9717    3.7891    0.0000 N   0  0
  -13.0046    2.7015    0.0000 C   0  0
  -12.3976    5.2274    0.0000 C   0  0
  -10.0888    2.0001    0.0000 C   0  0
   -8.6309    1.6473    0.0000 C   0  0
   -5.7171    0.9385    0.0000 C   0  0
    0.0000   -1.5000    0.0000 C   0  0
  1  2  1  0
  2  3  1  0
  3  4  2  0
  4  5  1  0
  5  6  1  0
  5  7  2  0
  7  8  1  0
  8  9  1  0
  9 10  2  0
 10 11  1  0
 11 12  1  0
 12 13  1  0
 13 14  3  0
 11 15  1  0
 15 16  2  0
 16  9  1  0
 16 17  1  0
 17 18  2  0
 18 19  1  0
 19 20  2  0
 20 21  1  0
 21 22  1  0
 22 23  2  0
 23 24  1  0
 24 25  2  0
 25 26  1  0
 26 27  1  0
 26 28  1  0
 25 29  1  0
 29 30  2  0
 30 22  1  0
 21 31  2  0
 31 17  1  0
  8 32  2  0
 32  3  1  0
M  END
> <Smiles>
COc1cc(C)cc(-c2nn(CC#N)cc2-c2ccnc(-c3ccc(N(C)C)cc3)c2)c1

> <ID>
CHEMBL575141

> <standard_value>
259

> <IC50_uM>
0.259

> <Activity>
Yes

> <pIC50>
6.586700236

> <BCI>
1

$$$$

  SciTegic03012415362D

 33 37  0  0  0  0            999 V2000
    3.8983   -0.7459    0.0000 C   0  0
    2.6003   -1.4977    0.0000 O   0  0
    1.2990   -0.7500    0.0000 C   0  0
    1.2990    0.7500    0.0000 C   0  0
    0.0000    1.5000    0.0000 C   0  0
    0.0000    3.0000    0.0000 C   0  0
   -1.2991    3.7500    0.0000 C   0  0
   -2.5981    3.0000    0.0000 N   0  0
   -3.8994    3.7477    0.0000 C   0  0
   -5.1981    2.9954    0.0000 C   0  0
   -6.4994    3.7432    0.0000 C   0  0
   -7.7981    2.9909    0.0000 N   0  3
   -9.0986    3.7382    0.0000 C   0  0
   -7.7954    1.4909    0.0000 C   0  0
   -9.0957    2.2384    0.0000 C   0  0
   -2.5981    1.5000    0.0000 C   0  0
   -3.8971    0.7500    0.0000 O   0  0
   -1.2990    0.7500    0.0000 C   0  0
   -1.2990   -0.7500    0.0000 C   0  0
    0.0000   -1.5000    0.0000 C   0  0
   -0.0031   -3.0008    0.0000 O   0  0
   -1.3032   -3.7490    0.0000 C   0  0
   -0.9876    5.2165    0.0000 C   0  0
   -1.8692    6.4288    0.0000 C   0  0
   -1.2591    7.7991    0.0000 C   0  0
    0.2327    7.9559    0.0000 C   0  0
    1.1144    6.7424    0.0000 C   0  0
    0.5042    5.3733    0.0000 C   0  0
    1.1143    4.0030    0.0000 C   0  0
    2.5815    3.6910    0.0000 O   0  0
    0.5446    9.4223    0.0000 O   0  0
   -0.7544   10.1723    0.0000 C   0  0
   -1.8691    9.1686    0.0000 O   0  0
  1  2  1  0
  2  3  1  0
  3  4  2  0
  4  5  1  0
  5  6  1  0
  6  7  2  0
  7  8  1  0
  8  9  1  0
  9 10  1  0
 10 11  1  0
 11 12  1  0
 12 13  1  0
 12 14  1  0
 12 15  1  0
  8 16  1  0
 16 17  2  0
 16 18  1  0
 18  5  2  0
 18 19  1  0
 19 20  2  0
 20  3  1  0
 20 21  1  0
 21 22  1  0
  7 23  1  0
 23 24  2  0
 24 25  1  0
 25 26  2  0
 26 27  1  0
 27 28  2  0
 28 23  1  0
 28 29  1  0
 29  6  1  0
 29 30  2  0
 26 31  1  0
 31 32  1  0
 32 33  1  0
 33 25  1  0
M  CHG  1  12   1
M  END
> <Smiles>
COc1cc2c3c(n(CCC[N+](C)(C)C)c(=O)c2cc1OC)-c1cc2c(cc1C3=O)OCO2.[Cl-]

> <ID>
CHEMBL325085

> <standard_value>
260

> <IC50_uM>
0.26

> <Activity>
Yes

> <pIC50>
6.585026652

> <BCI>
1

> <RemovedSalts>
Cl-

$$$$

  SciTegic03012415362D

 30 34  0  0  0  0            999 V2000
    3.8983   -0.7459    0.0000 C   0  0
    2.6003   -1.4977    0.0000 O   0  0
    1.2990   -0.7500    0.0000 C   0  0
    1.2990    0.7500    0.0000 C   0  0
    0.0000    1.5000    0.0000 C   0  0
    0.0000    3.0000    0.0000 C   0  0
   -1.2991    3.7500    0.0000 C   0  0
   -2.5981    3.0000    0.0000 N   0  0
   -3.8994    3.7477    0.0000 C   0  0
   -5.1981    2.9954    0.0000 C   0  0
   -6.4994    3.7432    0.0000 C   0  0
   -7.7973    2.9913    0.0000 N   0  0
   -2.5981    1.5000    0.0000 C   0  0
   -3.8971    0.7500    0.0000 O   0  0
   -1.2990    0.7500    0.0000 C   0  0
   -1.2990   -0.7500    0.0000 C   0  0
    0.0000   -1.5000    0.0000 C   0  0
   -0.0031   -3.0008    0.0000 O   0  0
   -1.3032   -3.7490    0.0000 C   0  0
   -0.9876    5.2165    0.0000 C   0  0
   -1.8692    6.4288    0.0000 C   0  0
   -1.2591    7.7991    0.0000 C   0  0
    0.2327    7.9559    0.0000 C   0  0
    1.1144    6.7424    0.0000 C   0  0
    0.5042    5.3733    0.0000 C   0  0
    1.1143    4.0030    0.0000 C   0  0
    2.5815    3.6910    0.0000 O   0  0
    0.5446    9.4223    0.0000 O   0  0
   -0.7544   10.1723    0.0000 C   0  0
   -1.8691    9.1686    0.0000 O   0  0
  1  2  1  0
  2  3  1  0
  3  4  2  0
  4  5  1  0
  5  6  1  0
  6  7  2  0
  7  8  1  0
  8  9  1  0
  9 10  1  0
 10 11  1  0
 11 12  1  0
  8 13  1  0
 13 14  2  0
 13 15  1  0
 15  5  2  0
 15 16  1  0
 16 17  2  0
 17  3  1  0
 17 18  1  0
 18 19  1  0
  7 20  1  0
 20 21  2  0
 21 22  1  0
 22 23  2  0
 23 24  1  0
 24 25  2  0
 25 20  1  0
 25 26  1  0
 26  6  1  0
 26 27  2  0
 23 28  1  0
 28 29  1  0
 29 30  1  0
 30 22  1  0
M  END
> <Smiles>
COc1cc2c3c(n(CCCN)c(=O)c2cc1OC)-c1cc2c(cc1C3=O)OCO2.Cl

> <ID>
CHEMBL421238

> <standard_value>
260

> <IC50_uM>
0.26

> <Activity>
Yes

> <pIC50>
6.585026652

> <BCI>
1

> <RemovedSalts>
HCl

$$$$

  SciTegic03012415362D

 34 35  0  0  1  0            999 V2000
    1.6767  -26.5560    0.0000 C   0  0
    2.5620  -25.3451    0.0000 C   0  0
    1.9566  -23.9718    0.0000 C   0  0
    2.8425  -22.7603    0.0000 C   0  0
    2.2370  -21.3870    0.0000 C   0  0
    3.1229  -20.1755    0.0000 C   0  0
    2.5175  -18.8022    0.0000 C   0  0
    3.4033  -17.5907    0.0000 C   0  0
    2.7979  -16.2174    0.0000 C   0  0
    3.6837  -15.0058    0.0000 C   0  0
    3.0783  -13.6325    0.0000 C   0  0
    3.9641  -12.4210    0.0000 C   0  0
    3.3587  -11.0477    0.0000 C   0  0
    4.2445   -9.8362    0.0000 C   0  0
    3.6391   -8.4629    0.0000 C   0  0
    4.5250   -7.2514    0.0000 C   0  0
    3.9195   -5.8781    0.0000 N   0  0
    4.8054   -4.6666    0.0000 C   0  0
    6.2966   -4.8284    0.0000 O   0  0
    4.2010   -3.2956    0.0000 C   0  0  2  0  0  0
    4.9531   -1.9978    0.0000 C   0  0
    3.9511   -0.8815    0.0000 S   0  0
    2.5987   -1.5004    0.0000 C   0  0  3  0  0  0
    1.2990   -0.7500    0.0000 C   0  0
    1.2990    0.7500    0.0000 C   0  0
    0.0000    1.5000    0.0000 C   0  0
   -1.2990    0.7500    0.0000 C   0  0
   -2.6003    1.4977    0.0000 N   0  0
   -3.8990    0.7455    0.0000 C   0  0
   -3.8964   -0.7545    0.0000 C   0  0
   -5.1996    1.4928    0.0000 O   0  0
   -1.2990   -0.7500    0.0000 C   0  0
    0.0000   -1.5000    0.0000 C   0  0
    2.7343   -2.9815    0.0000 N   0  0
  1  2  1  0
  2  3  1  0
  3  4  1  0
  4  5  1  0
  5  6  1  0
  6  7  1  0
  7  8  1  0
  8  9  1  0
  9 10  1  0
 10 11  1  0
 11 12  1  0
 12 13  1  0
 13 14  1  0
 14 15  1  0
 15 16  1  0
 16 17  1  0
 17 18  1  0
 18 19  2  0
 20 18  1  1
 20 21  1  0
 21 22  1  0
 22 23  1  0
 23 24  1  4
 24 25  2  0
 25 26  1  0
 26 27  2  0
 27 28  1  0
 28 29  1  0
 29 30  1  0
 29 31  2  0
 27 32  1  0
 32 33  2  0
 33 24  1  0
 23 34  1  0
 34 20  1  0
M  END
> <Smiles>
CCCCCCCCCCCCCCCCNC(=O)[C@@H]1CSC(c2ccc(NC(C)=O)cc2)N1

> <ID>
CHEMBL236918

> <standard_value>
260

> <IC50_uM>
0.26

> <Activity>
Yes

> <pIC50>
6.585026652

> <BCI>
1

$$$$

  SciTegic03012415362D

 27 29  0  0  1  0            999 V2000
    2.5951   -3.0031    0.0000 C   0  0
    2.5973   -1.5031    0.0000 O   0  0
    1.2990   -0.7500    0.0000 C   0  0
    1.2990    0.7500    0.0000 C   0  0
    0.0000    1.5000    0.0000 C   0  0
   -1.2990    0.7500    0.0000 C   0  0
   -2.2638    1.8997    0.0000 C   0  0
   -3.7423    1.6417    0.0000 S   0  0
   -4.7057    2.7925    0.0000 C   0  0
   -6.1841    2.5345    0.0000 C   0  0  2  0  0  0
   -6.6992    1.1257    0.0000 N   0  0
   -7.1475    3.6853    0.0000 C   0  0
   -8.6252    3.4275    0.0000 O   0  0
   -1.7512    3.3104    0.0000 C   0  0
   -2.7160    4.4589    0.0000 C   0  0
   -2.2037    5.8687    0.0000 C   0  0
   -0.7266    6.1300    0.0000 C   0  0
    0.2382    4.9814    0.0000 C   0  0
   -0.2741    3.5716    0.0000 C   0  0
   -2.7783    0.4899    0.0000 C   0  0
   -1.8151   -0.6600    0.0000 C   0  0
   -2.3294   -2.0691    0.0000 C   0  0
   -3.8069   -2.3283    0.0000 C   0  0
   -4.7700   -1.1783    0.0000 C   0  0
   -4.2558    0.2308    0.0000 C   0  0
   -1.2990   -0.7500    0.0000 C   0  0
    0.0000   -1.5000    0.0000 C   0  0
  1  2  1  0
  2  3  1  0
  3  4  2  0
  4  5  1  0
  5  6  2  0
  6  7  1  0
  7  8  1  0
  8  9  1  0
  9 10  1  0
 10 11  1  6
 10 12  1  0
 12 13  1  0
  7 14  1  0
 14 15  2  0
 15 16  1  0
 16 17  2  0
 17 18  1  0
 18 19  2  0
 19 14  1  0
  7 20  1  0
 20 21  2  0
 21 22  1  0
 22 23  2  0
 23 24  1  0
 24 25  2  0
 25 20  1  0
  6 26  1  0
 26 27  2  0
 27  3  1  0
M  END
> <Smiles>
COc1ccc(C(SC[C@H](N)CO)(c2ccccc2)c2ccccc2)cc1

> <ID>
CHEMBL1818527

> <standard_value>
260

> <IC50_uM>
0.26

> <Activity>
Yes

> <pIC50>
6.585026652

> <BCI>
1

$$$$

  SciTegic03012415362D

 30 33  0  0  0  0            999 V2000
    3.8983   -0.7459    0.0000 C   0  0
    2.6003   -1.4977    0.0000 O   0  0
    1.2990   -0.7500    0.0000 C   0  0
    1.2990    0.7500    0.0000 C   0  0
    0.0000    1.5000    0.0000 C   0  0
    0.0000    3.0000    0.0000 C   0  0
   -1.2991    3.7500    0.0000 C   0  0
   -2.5981    3.0000    0.0000 N   0  0
   -3.8994    3.7477    0.0000 C   0  0
   -5.1981    2.9954    0.0000 C   0  0
   -6.4994    3.7432    0.0000 C   0  0
   -7.7981    2.9909    0.0000 N   0  0
   -9.0994    3.7386    0.0000 C   0  0
  -10.3980    2.9864    0.0000 C   0  0
  -11.6986    3.7337    0.0000 O   0  0
   -2.5981    1.5000    0.0000 C   0  0
   -3.8971    0.7500    0.0000 O   0  0
   -1.2990    0.7500    0.0000 C   0  0
   -1.2990   -0.7500    0.0000 C   0  0
    0.0000   -1.5000    0.0000 C   0  0
   -0.0031   -3.0008    0.0000 O   0  0
   -1.3032   -3.7490    0.0000 C   0  0
   -0.9876    5.2165    0.0000 C   0  0
   -1.8692    6.4288    0.0000 N   0  0
   -1.2591    7.7991    0.0000 C   0  0
    0.2327    7.9559    0.0000 C   0  0
    1.1144    6.7424    0.0000 C   0  0
    0.5042    5.3733    0.0000 C   0  0
    1.1143    4.0030    0.0000 C   0  0
    2.5815    3.6910    0.0000 O   0  0
  1  2  1  0
  2  3  1  0
  3  4  2  0
  4  5  1  0
  5  6  1  0
  6  7  2  0
  7  8  1  0
  8  9  1  0
  9 10  1  0
 10 11  1  0
 11 12  1  0
 12 13  1  0
 13 14  1  0
 14 15  1  0
  8 16  1  0
 16 17  2  0
 16 18  1  0
 18  5  2  0
 18 19  1  0
 19 20  2  0
 20  3  1  0
 20 21  1  0
 21 22  1  0
  7 23  1  0
 23 24  2  0
 24 25  1  0
 25 26  2  0
 26 27  1  0
 27 28  2  0
 28 23  1  0
 28 29  1  0
 29  6  1  0
 29 30  2  0
M  END
> <Smiles>
COc1cc2c3c(n(CCCNCCO)c(=O)c2cc1OC)-c1ncccc1C3=O

> <ID>
CHEMBL1836120

> <standard_value>
260

> <IC50_uM>
0.26

> <Activity>
Yes

> <pIC50>
6.585026652

> <BCI>
1

$$$$

  SciTegic03012415362D

 29 33  0  0  0  0            999 V2000
    2.5951   -3.0031    0.0000 C   0  0
    2.5973   -1.5031    0.0000 O   0  0
    1.2990   -0.7500    0.0000 C   0  0
    1.2990    0.7500    0.0000 C   0  0
    0.0000    1.5000    0.0000 C   0  0
   -1.2990    0.7500    0.0000 C   0  0
   -1.2990   -0.7500    0.0000 C   0  0
    0.0000   -1.5000    0.0000 C   0  0
   -2.5981   -1.5000    0.0000 C   0  0
   -3.8971   -0.7500    0.0000 C   0  0
   -3.8971    0.7500    0.0000 C   0  0
   -2.5981    1.5000    0.0000 N   0  0
   -2.5981    3.0007    0.0000 C   0  0
   -1.2979    3.7488    0.0000 N   0  0
   -1.2955    5.2488    0.0000 C   0  0
    0.0047    5.9968    0.0000 C   0  0
   -2.5933    6.0009    0.0000 N   0  0
   -3.8936    5.2529    0.0000 C   0  0
   -5.3186    5.7187    0.0000 C   0  0
   -5.7820    7.1435    0.0000 C   0  0
   -7.2499    7.4560    0.0000 C   0  0
   -7.7160    8.8818    0.0000 C   0  0
   -9.1837    9.1912    0.0000 C   0  0
  -10.1855    8.0747    0.0000 C   0  0
   -9.7196    6.6490    0.0000 C   0  0
   -8.2518    6.3396    0.0000 C   0  0
   -6.2022    4.5066    0.0000 C   0  0
   -5.3224    3.2916    0.0000 N   0  0
   -3.8959    3.7529    0.0000 C   0  0
  1  2  1  0
  2  3  1  0
  3  4  2  0
  4  5  1  0
  5  6  2  0
  6  7  1  0
  7  8  2  0
  8  3  1  0
  7  9  1  0
  9 10  1  0
 10 11  1  0
 11 12  1  0
 12  6  1  0
 12 13  1  0
 13 14  2  0
 14 15  1  0
 15 16  1  0
 15 17  2  0
 17 18  1  0
 18 19  1  0
 19 20  1  0
 20 21  1  0
 21 22  2  0
 22 23  1  0
 23 24  2  0
 24 25  1  0
 25 26  2  0
 26 21  1  0
 19 27  2  0
 27 28  1  0
 28 29  1  0
 29 13  1  0
 29 18  2  0
M  END
> <Smiles>
COc1ccc2c(c1)CCCN2c1nc(C)nc2c(Cc3ccccc3)c[nH]c12.Cl

> <ID>
CHEMBL4069672

> <standard_value>
260

> <IC50_uM>
0.26

> <Activity>
Yes

> <pIC50>
6.585026652

> <BCI>
1

> <RemovedSalts>
HCl

$$$$

  SciTegic03012415362D

 32 36  0  0  1  0            999 V2000
    4.2021   -2.6399    0.0000 C   0  0
    3.7381   -1.2135    0.0000 C   0  0
    4.6198    0.0000    0.0000 C   0  0
    6.1198    0.0000    0.0000 O   0  0
    3.7381    1.2135    0.0000 O   0  0
    2.3083    0.7500    0.0000 C   0  0  2  0  0  0
    1.4266    1.9635    0.0000 C   0  0  1  0  0  0
    1.0395    3.4605    0.0000 O   0  0
    0.0000    2.4271    0.0000 C   0  0  1  0  0  0
   -0.7819    3.7072    0.0000 C   0  0
   -1.4266    1.9635    0.0000 C   0  0
   -2.3083    0.7500    0.0000 C   0  0
   -2.3083   -0.7500    0.0000 C   0  0
   -1.4266   -1.9635    0.0000 C   0  0
   -2.3096   -3.1841    0.0000 C   0  0
   -1.6973   -4.5543    0.0000 O   0  0
   -2.5770   -5.7702    0.0000 C   0  0
   -4.0690   -5.6160    0.0000 O   0  0
   -1.9646   -7.1405    0.0000 C   0  0
   -2.8443   -8.3564    0.0000 C   0  0
   -2.2320   -9.7267    0.0000 C   0  0
   -0.7727  -10.0138    0.0000 C   0  0
   -0.6111  -11.5051    0.0000 N   0  0
   -1.9787  -12.1191    0.0000 C   0  0
   -2.4376  -13.5472    0.0000 C   0  0
   -3.9038  -13.8639    0.0000 C   0  0
   -4.9111  -12.7525    0.0000 C   0  0
   -4.4523  -11.3244    0.0000 C   0  0
   -2.9861  -11.0077    0.0000 C   0  0
    0.0000   -2.4271    0.0000 C   0  0
    1.4266   -1.9635    0.0000 C   0  0
    2.3083   -0.7500    0.0000 C   0  0  1  0  0  0
  1  2  2  0
  2  3  1  0
  3  4  2  0
  3  5  1  0
  6  5  1  1
  6  7  1  0
  7  8  1  6
  8  9  1  0
  9  7  1  0
  9 10  1  6
  9 11  1  0
 11 12  1  0
 12 13  1  0
 13 14  2  0
 14 15  1  0
 15 16  1  0
 16 17  1  0
 17 18  2  0
 17 19  1  0
 19 20  2  0
 20 21  1  0
 21 22  2  0
 22 23  1  0
 23 24  1  0
 24 25  2  0
 25 26  1  0
 26 27  2  0
 27 28  1  0
 28 29  2  0
 29 21  1  0
 29 24  1  0
 14 30  1  0
 30 31  1  0
 32 31  1  6
 32  2  1  0
 32  6  1  0
M  END
> <Smiles>
C=C1C(=O)O[C@@H]2[C@H]3O[C@]3(C)CC/C=C(/COC(=O)/C=C/c3c[nH]c4ccccc34)CC[C@@H]12

> <ID>
CHEMBL4161413

> <standard_value>
260

> <IC50_uM>
0.26

> <Activity>
Yes

> <pIC50>
6.585026652

> <BCI>
1

$$$$

  SciTegic03012415362D

 30 34  0  0  1  0            999 V2000
    4.2021   -2.6399    0.0000 C   0  0
    3.7381   -1.2135    0.0000 C   0  0
    4.6198    0.0000    0.0000 C   0  0
    6.1198    0.0000    0.0000 O   0  0
    3.7381    1.2135    0.0000 O   0  0
    2.3083    0.7500    0.0000 C   0  0  2  0  0  0
    1.4266    1.9635    0.0000 C   0  0  1  0  0  0
    1.0395    3.4605    0.0000 O   0  0
    0.0000    2.4271    0.0000 C   0  0  1  0  0  0
   -0.7819    3.7072    0.0000 C   0  0
   -1.4266    1.9635    0.0000 C   0  0
   -2.3083    0.7500    0.0000 C   0  0
   -2.3083   -0.7500    0.0000 C   0  0
   -1.4266   -1.9635    0.0000 C   0  0
   -2.3096   -3.1841    0.0000 C   0  0
   -1.6973   -4.5543    0.0000 O   0  0
   -2.5770   -5.7702    0.0000 C   0  0
   -4.0690   -5.6160    0.0000 O   0  0
   -1.9646   -7.1405    0.0000 C   0  0
   -0.5054   -7.4276    0.0000 C   0  0
   -0.3437   -8.9189    0.0000 N   0  0
   -1.7114   -9.5329    0.0000 C   0  0
   -2.1702  -10.9610    0.0000 C   0  0
   -3.6364  -11.2777    0.0000 C   0  0
   -4.6438  -10.1663    0.0000 C   0  0
   -4.1849   -8.7382    0.0000 C   0  0
   -2.7187   -8.4215    0.0000 C   0  0
    0.0000   -2.4271    0.0000 C   0  0
    1.4266   -1.9635    0.0000 C   0  0
    2.3083   -0.7500    0.0000 C   0  0  1  0  0  0
  1  2  2  0
  2  3  1  0
  3  4  2  0
  3  5  1  0
  6  5  1  1
  6  7  1  0
  7  8  1  6
  8  9  1  0
  9  7  1  0
  9 10  1  6
  9 11  1  0
 11 12  1  0
 12 13  1  0
 13 14  2  0
 14 15  1  0
 15 16  1  0
 16 17  1  0
 17 18  2  0
 17 19  1  0
 19 20  2  0
 20 21  1  0
 21 22  1  0
 22 23  2  0
 23 24  1  0
 24 25  2  0
 25 26  1  0
 26 27  2  0
 27 19  1  0
 27 22  1  0
 14 28  1  0
 28 29  1  0
 30 29  1  6
 30  2  1  0
 30  6  1  0
M  END
> <Smiles>
C=C1C(=O)O[C@@H]2[C@H]3O[C@]3(C)CC/C=C(/COC(=O)c3c[nH]c4ccccc34)CC[C@@H]12

> <ID>
CHEMBL4172758

> <standard_value>
260

> <IC50_uM>
0.26

> <Activity>
Yes

> <pIC50>
6.585026652

> <BCI>
1

$$$$

  SciTegic03012415362D

 30 34  0  0  1  0            999 V2000
    1.8479    4.6057    0.0000 C   0  0
    2.3109    3.1790    0.0000 C   0  0
    3.7375    2.7155    0.0000 C   0  0
    4.9510    3.5971    0.0000 O   0  0
    3.7375    1.2155    0.0000 O   0  0
    2.3083    0.7500    0.0000 C   0  0  1  0  0  0
    1.4266    1.9635    0.0000 C   0  0  1  0  0  0
    0.0000    2.4271    0.0000 C   0  0
   -1.4266    1.9635    0.0000 C   0  0
   -2.3083    0.7500    0.0000 C   0  0
   -3.7419    1.2126    0.0000 C   0  0
   -4.8559    0.2068    0.0000 N   0  0
   -6.3079    0.5283    0.0000 C   0  0
   -7.0535   -0.7733    0.0000 C   0  0
   -8.5455   -0.9353    0.0000 C   0  0
   -9.5160    0.2019    0.0000 C   0  0
  -10.9908   -0.0717    0.0000 C   0  0
  -11.4912   -1.4858    0.0000 C   0  0
  -12.9660   -1.7595    0.0000 F   0  0
  -10.5168   -2.6262    0.0000 C   0  0
   -9.0420   -2.3525    0.0000 C   0  0
   -6.0460   -1.8845    0.0000 N   0  0
   -4.6777   -1.2697    0.0000 N   0  0
   -2.3083   -0.7500    0.0000 C   0  0
   -1.4266   -1.9635    0.0000 C   0  0
    0.0000   -2.4271    0.0000 C   0  0
    1.4266   -1.9635    0.0000 C   0  0  1  0  0  0
    2.8116   -1.3875    0.0000 C   0  0
    2.8750   -2.1886    0.0000 O   0  0
    2.3083   -0.7500    0.0000 C   0  0  1  0  0  0
  1  2  2  0
  2  3  1  0
  3  4  2  0
  3  5  1  0
  6  5  1  6
  6  7  1  0
  7  2  1  0
  7  8  1  1
  8  9  1  0
  9 10  1  0
 10 11  1  0
 11 12  1  0
 12 13  1  0
 13 14  2  0
 14 15  1  0
 15 16  2  0
 16 17  1  0
 17 18  2  0
 18 19  1  0
 18 20  1  0
 20 21  2  0
 21 15  1  0
 14 22  1  0
 22 23  2  0
 23 12  1  0
 10 24  2  0
 24 25  1  0
 25 26  1  0
 26 27  1  0
 27 28  1  1
 27 29  1  0
 30 29  1  6
 30  6  1  0
 30 27  1  0
M  END
> <Smiles>
C=C1C(=O)O[C@H]2[C@H]1CC/C(Cn1cc(-c3ccc(F)cc3)nn1)=C\CC[C@@]1(C)O[C@@H]21

> <ID>
CHEMBL4280635

> <standard_value>
270

> <IC50_uM>
0.27

> <Activity>
Yes

> <pIC50>
6.568636236

> <BCI>
1

$$$$

  SciTegic03012415362D

 20 21  0  0  0  0            999 V2000
    5.1887   -6.0105    0.0000 C   0  0
    3.8912   -5.2578    0.0000 C   0  0
    3.8933   -3.7570    0.0000 C   0  0
    2.5951   -3.0039    0.0000 C   0  0
    2.5973   -1.5031    0.0000 S   0  0
    1.2990   -0.7500    0.0000 C   0  0
    1.2990    0.7500    0.0000 C   0  0
    0.0000    1.5000    0.0000 C   0  0
   -1.2990    0.7500    0.0000 C   0  0
   -2.7248    1.2135    0.0000 N   0  0
   -3.6065    0.0000    0.0000 C   0  0
   -5.1047   -0.0031    0.0000 N   0  0
   -5.8532   -1.3040    0.0000 C   0  0
   -5.1009   -2.6017    0.0000 O   0  0
   -7.3541   -1.3071    0.0000 O   0  0
   -8.1026   -2.6079    0.0000 C   0  0
   -9.6026   -2.6111    0.0000 C   0  0
   -2.7248   -1.2135    0.0000 S   0  0
   -1.2990   -0.7500    0.0000 C   0  0
    0.0000   -1.5000    0.0000 C   0  0
  1  2  1  0
  2  3  1  0
  3  4  1  0
  4  5  1  0
  5  6  1  0
  6  7  2  0
  7  8  1  0
  8  9  2  0
  9 10  1  0
 10 11  2  0
 11 12  1  0
 12 13  1  0
 13 14  2  0
 13 15  1  0
 15 16  1  0
 16 17  1  0
 11 18  1  0
 18 19  1  0
 19  9  1  0
 19 20  2  0
 20  6  1  0
M  END
> <Smiles>
CCCCSc1ccc2nc(NC(=O)OCC)sc2c1

> <ID>
CHEMBL4286942

> <standard_value>
270

> <IC50_uM>
0.27

> <Activity>
Yes

> <pIC50>
6.568636236

> <BCI>
1

$$$$

  SciTegic03012415362D

 49 56  0  0  0  0            999 V2000
    3.8805   -1.4410    0.0000 O   0  0
    2.4133   -1.7530    0.0000 C   0  0
    1.2990   -0.7500    0.0000 C   0  0
    1.2990    0.7500    0.0000 C   0  0
    0.0000    1.5000    0.0000 C   0  0
   -1.2990    0.7500    0.0000 C   0  0
   -1.2990   -0.7500    0.0000 C   0  0
    0.0000   -1.5000    0.0000 C   0  0
    0.3114   -2.9665    0.0000 C   0  0
    1.8032   -3.1233    0.0000 C   0  0
    2.4135   -4.4923    0.0000 C   0  0
    3.9053   -4.6492    0.0000 C   0  0
    4.5154   -6.0195    0.0000 C   0  0
    3.6337   -7.2330    0.0000 C   0  0
    2.1419   -7.0762    0.0000 C   0  0
    1.5318   -5.7059    0.0000 C   0  0
    0.0400   -5.5491    0.0000 C   0  0
   -0.8417   -6.7626    0.0000 O   0  0
   -0.5701   -4.1788    0.0000 N   0  0
   -2.0630   -4.0243    0.0000 C   0  0
   -2.9439   -5.2394    0.0000 C   0  0
   -4.4368   -5.0850    0.0000 N   0  0
   -5.3177   -6.3001    0.0000 C   0  0
   -6.8105   -6.1457    0.0000 C   0  0
   -7.6915   -7.3608    0.0000 N   0  0
   -9.1843   -7.2064    0.0000 C   0  0
  -10.0653   -8.4214    0.0000 C   0  0
  -11.5581   -8.2670    0.0000 N   0  0
  -12.4391   -9.4821    0.0000 C   0  0
  -13.9319   -9.3277    0.0000 C   0  0
  -14.8128  -10.5428    0.0000 N   0  0
  -16.3051  -10.3906    0.0000 C   0  0
  -17.1831  -11.6068    0.0000 C   0  0
  -16.5688  -12.9753    0.0000 C   0  0
  -17.4468  -14.1915    0.0000 C   0  0
  -16.8325  -15.5600    0.0000 C   0  0
  -15.3403  -15.7122    0.0000 C   0  0
  -14.4623  -14.4960    0.0000 C   0  0
  -15.0766  -13.1275    0.0000 C   0  0
  -14.1986  -11.9113    0.0000 C   0  0
  -12.7063  -12.0636    0.0000 O   0  0
  -18.6104  -11.1482    0.0000 C   0  0
  -19.8212  -12.0336    0.0000 O   0  0
  -18.6150   -9.6482    0.0000 C   0  0
  -19.7324   -8.6491    0.0000 C   0  0
  -19.4250   -7.1809    0.0000 C   0  0
  -17.9998   -6.7130    0.0000 C   0  0
  -16.8820   -7.7133    0.0000 C   0  0
  -17.1898   -9.1803    0.0000 C   0  0
  1  2  2  0
  2  3  1  0
  3  4  2  0
  4  5  1  0
  5  6  2  0
  6  7  1  0
  7  8  2  0
  8  3  1  0
  8  9  1  0
  9 10  2  0
 10  2  1  0
 10 11  1  0
 11 12  2  0
 12 13  1  0
 13 14  2  0
 14 15  1  0
 15 16  2  0
 16 11  1  0
 16 17  1  0
 17 18  2  0
 17 19  1  0
 19  9  1  0
 19 20  1  0
 20 21  1  0
 21 22  1  0
 22 23  1  0
 23 24  1  0
 24 25  1  0
 25 26  1  0
 26 27  1  0
 27 28  1  0
 28 29  1  0
 29 30  1  0
 30 31  1  0
 31 32  1  0
 32 33  2  0
 33 34  1  0
 34 35  2  0
 35 36  1  0
 36 37  2  0
 37 38  1  0
 38 39  2  0
 39 34  1  0
 39 40  1  0
 40 31  1  0
 40 41  2  0
 33 42  1  0
 42 43  2  0
 42 44  1  0
 44 45  2  0
 45 46  1  0
 46 47  2  0
 47 48  1  0
 48 49  2  0
 49 44  1  0
 49 32  1  0
M  END
> <Smiles>
O=C1c2ccccc2-c2c1c1ccccc1c(=O)n2CCNCCNCCNCCn1c2c(c3ccccc3c1=O)C(=O)c1ccccc1-2

> <ID>
CHEMBL213685

> <standard_value>
275

> <IC50_uM>
0.275

> <Activity>
Yes

> <pIC50>
6.560667306

> <BCI>
1

$$$$

  SciTegic03012415362D

 28 31  0  0  0  0            999 V2000
    2.5951   -3.0031    0.0000 C   0  0
    2.5973   -1.5031    0.0000 O   0  0
    1.2990   -0.7500    0.0000 C   0  0
    1.2990    0.7500    0.0000 C   0  0
    0.0000    1.5000    0.0000 N   0  0
   -1.2990    0.7500    0.0000 C   0  0
   -1.2990   -0.7500    0.0000 C   0  0
    0.0000   -1.5000    0.0000 C   0  0
   -2.7248   -1.2135    0.0000 C   0  0
   -3.1882   -2.6402    0.0000 O   0  0
   -3.6065    0.0000    0.0000 C   0  0
   -2.7248    1.2135    0.0000 C   0  0
   -3.3339    2.5831    0.0000 N   0  0
   -2.4537    3.7988    0.0000 C   0  0
   -3.0656    5.1692    0.0000 C   0  0
   -2.1854    6.3848    0.0000 C   0  0
   -2.7969    7.7545    0.0000 Br  0  0
   -4.8257    2.7399    0.0000 C   0  0
   -5.4358    4.1102    0.0000 O   0  0
   -5.7073    1.5263    0.0000 C   0  0
   -7.1991    1.6831    0.0000 C   0  0
   -8.0808    0.4696    0.0000 C   0  0
   -9.5737    0.6234    0.0000 N   0  3
  -10.4537   -0.5914    0.0000 O   0  0
  -10.1862    1.9927    0.0000 O   0  5
   -7.4707   -0.9007    0.0000 C   0  0
   -5.9789   -1.0575    0.0000 C   0  0
   -5.0972    0.1560    0.0000 C   0  0
  1  2  1  0
  2  3  1  0
  3  4  2  0
  4  5  1  0
  5  6  2  0
  6  7  1  0
  7  8  2  0
  8  3  1  0
  7  9  1  0
  9 10  2  0
  9 11  1  0
 11 12  2  0
 12  6  1  0
 12 13  1  0
 13 14  1  0
 14 15  1  0
 15 16  1  0
 16 17  1  0
 13 18  1  0
 18 19  2  0
 18 20  1  0
 20 21  2  0
 21 22  1  0
 22 23  1  0
 23 24  2  0
 23 25  1  0
 22 26  2  0
 26 27  1  0
 27 28  2  0
 28 11  1  0
 28 20  1  0
M  CHG  2  23   1  25  -1
M  END
> <Smiles>
COc1cnc2c(c1)C(=O)c1c-2n(CCCBr)c(=O)c2cc([N+](=O)[O-])ccc12

> <ID>
CHEMBL4103127

> <standard_value>
279

> <IC50_uM>
0.279

> <Activity>
Yes

> <pIC50>
6.554395797

> <BCI>
1

$$$$

  SciTegic03012415362D

 30 35  0  0  0  0            999 V2000
    3.8983   -0.7459    0.0000 C   0  0
    2.6003   -1.4977    0.0000 O   0  0
    1.2990   -0.7500    0.0000 C   0  0
    1.2990    0.7500    0.0000 C   0  0
    0.0000    1.5000    0.0000 C   0  0
    0.0000    3.0000    0.0000 C   0  0
   -1.2991    3.7500    0.0000 N   0  0
   -2.5981    3.0000    0.0000 C   0  0
   -2.5981    1.5000    0.0000 C   0  0
   -1.2990    0.7500    0.0000 C   0  0
   -1.2990   -0.7500    0.0000 C   0  0
    0.0000   -1.5000    0.0000 C   0  0
   -0.0031   -3.0008    0.0000 O   0  0
   -1.3032   -3.7490    0.0000 C   0  0
   -4.0238    1.0365    0.0000 C   0  0
   -4.9055    2.2500    0.0000 C   0  0
   -4.0238    3.4635    0.0000 C   0  0
   -4.6329    4.8331    0.0000 C   0  0
   -6.1247    4.9899    0.0000 C   0  0
   -7.0064    3.7763    0.0000 C   0  0
   -6.3963    2.4060    0.0000 C   0  0
   -7.2754    1.1896    0.0000 C   0  0
   -6.6625   -0.1803    0.0000 N   0  0
   -7.4164   -1.4623    0.0000 C   0  0
   -6.4083   -2.5731    0.0000 C   0  0
   -5.0404   -1.9577    0.0000 N   0  0
   -5.2030   -0.4665    0.0000 C   0  0
   -8.4323    4.2393    0.0000 O   0  0
   -8.4323    5.7393    0.0000 C   0  0
   -7.0057    6.2029    0.0000 O   0  0
  1  2  1  0
  2  3  1  0
  3  4  2  0
  4  5  1  0
  5  6  2  0
  6  7  1  0
  7  8  2  0
  8  9  1  0
  9 10  2  0
 10  5  1  0
 10 11  1  0
 11 12  2  0
 12  3  1  0
 12 13  1  0
 13 14  1  0
  9 15  1  0
 15 16  1  0
 16 17  2  0
 17  8  1  0
 17 18  1  0
 18 19  2  0
 19 20  1  0
 20 21  2  0
 21 16  1  0
 21 22  1  0
 22 23  1  0
 23 24  1  0
 24 25  2  0
 25 26  1  0
 26 27  2  0
 27 23  1  0
 20 28  1  0
 28 29  1  0
 29 30  1  0
 30 19  1  0
M  END
> <Smiles>
COc1cc2cnc3c(c2cc1OC)Cc1c-3cc2c(c1Cn1ccnc1)OCO2

> <ID>
CHEMBL598639

> <standard_value>
280

> <IC50_uM>
0.28

> <Activity>
Yes

> <pIC50>
6.552841969

> <BCI>
1

$$$$

  SciTegic03012415362D

 42 46  0  0  0  0            999 V2000
    9.0829   -8.2795    0.0000 C   0  0
    7.7876   -7.5231    0.0000 O   0  0
    6.4837   -8.2663    0.0000 C   0  0
    6.4785   -9.7663    0.0000 C   0  0
    5.1769  -10.5118    0.0000 C   0  0
    3.8804   -9.7573    0.0000 C   0  0
    3.8856   -8.2573    0.0000 C   0  0
    5.1873   -7.5117    0.0000 C   0  0
    5.1894   -6.0109    0.0000 C   0  0
    3.8912   -5.2578    0.0000 N   0  0
    3.8933   -3.7570    0.0000 C   0  0
    2.5951   -3.0039    0.0000 C   0  0
    2.5973   -1.5031    0.0000 C   0  0
    1.2990   -0.7500    0.0000 N   0  0
    1.2990    0.7500    0.0000 C   0  0
    2.5981    1.5000    0.0000 O   0  0
    0.0000    1.5000    0.0000 C   0  0
    0.0000    3.0000    0.0000 C   0  0
   -1.2991    3.7500    0.0000 C   0  0
   -2.5981    3.0000    0.0000 C   0  0
   -2.5981    1.5000    0.0000 C   0  0
   -3.8971    0.7500    0.0000 C   0  0
   -3.8971   -0.7500    0.0000 C   0  0
   -2.5981   -1.5000    0.0000 C   0  0
   -1.2990   -0.7500    0.0000 C   0  0
   -1.2990    0.7500    0.0000 C   0  0
    0.0000   -1.5000    0.0000 C   0  0
    0.0000   -3.0000    0.0000 O   0  0
   -5.1962    1.5000    0.0000 C   0  0
   -6.4952    0.7500    0.0000 O   0  0
   -5.1962    3.0000    0.0000 N   0  0
   -6.4944    3.7531    0.0000 C   0  0
   -6.4923    5.2539    0.0000 C   0  0
   -7.7905    6.0070    0.0000 C   0  0
   -7.7883    7.5078    0.0000 N   0  0
   -9.0866    8.2609    0.0000 C   0  0
   -9.0844    9.7617    0.0000 C   0  0
  -10.3826   10.5148    0.0000 C   0  0
  -10.3805   12.0156    0.0000 C   0  0
  -11.6780   12.7682    0.0000 N   0  0
   -3.8971    3.7500    0.0000 C   0  0
   -3.8971    5.2500    0.0000 O   0  0
  1  2  1  0
  2  3  1  0
  3  4  2  0
  4  5  1  0
  5  6  2  0
  6  7  1  0
  7  8  2  0
  8  3  1  0
  8  9  1  0
  9 10  1  0
 10 11  1  0
 11 12  1  0
 12 13  1  0
 13 14  1  0
 14 15  1  0
 15 16  2  0
 15 17  1  0
 17 18  2  0
 18 19  1  0
 19 20  2  0
 20 21  1  0
 21 22  2  0
 22 23  1  0
 23 24  2  0
 24 25  1  0
 25 26  2  0
 26 17  1  0
 26 21  1  0
 25 27  1  0
 27 14  1  0
 27 28  2  0
 22 29  1  0
 29 30  2  0
 29 31  1  0
 31 32  1  0
 32 33  1  0
 33 34  1  0
 34 35  1  0
 35 36  1  0
 36 37  1  0
 37 38  1  0
 38 39  1  0
 39 40  1  0
 31 41  1  0
 41 20  1  0
 41 42  2  0
M  END
> <Smiles>
COc1ccccc1CNCCCN1C(=O)c2ccc3c4c(ccc(c24)C1=O)C(=O)N(CCCNCCCCN)C3=O

> <ID>
CHEMBL4092588

> <standard_value>
280

> <IC50_uM>
0.28

> <Activity>
Yes

> <pIC50>
6.552841969

> <BCI>
1

$$$$

  SciTegic03012415362D

 35 39  0  0  0  0            999 V2000
    3.8983   -0.7459    0.0000 C   0  0
    2.6003   -1.4977    0.0000 O   0  0
    1.2990   -0.7500    0.0000 C   0  0
    1.2990    0.7500    0.0000 C   0  0
    0.0000    1.5000    0.0000 C   0  0
   -1.2990    0.7500    0.0000 C   0  0
   -1.2990   -0.7500    0.0000 C   0  0
    0.0000   -1.5000    0.0000 C   0  0
    0.0000   -3.0000    0.0000 O   0  0
   -2.4133    1.7530    0.0000 C   0  0
   -1.8032    3.1233    0.0000 C   0  0
   -2.6838    4.3363    0.0000 C   0  0
   -2.0737    5.7066    0.0000 C   0  0
   -2.9554    6.9201    0.0000 C   0  0
   -2.3421    8.2900    0.0000 O   0  0
   -0.8501    8.4446    0.0000 C   0  0
   -4.4472    6.7633    0.0000 C   0  0
   -5.3318    7.9757    0.0000 O   0  0
   -6.8234    7.8168    0.0000 C   0  0
   -5.0572    5.3930    0.0000 C   0  0
   -4.1756    4.1795    0.0000 C   0  0
   -4.7857    2.8092    0.0000 C   0  0
   -6.2774    2.6524    0.0000 O   0  0
   -3.9040    1.5956    0.0000 N   0  0
   -4.5167    0.2256    0.0000 C   0  0
   -6.0094    0.0702    0.0000 C   0  0
   -6.6221   -1.2999    0.0000 C   0  0
   -8.1149   -1.4552    0.0000 N   0  0
   -8.7293   -2.8237    0.0000 C   0  0
  -10.2215   -2.9759    0.0000 C   0  0
  -11.0995   -1.7597    0.0000 O   0  0
  -10.4852   -0.3913    0.0000 C   0  0
   -8.9930   -0.2390    0.0000 C   0  0
   -0.3115    2.9665    0.0000 C   0  0
    0.6923    4.0811    0.0000 O   0  0
  1  2  1  0
  2  3  1  0
  3  4  2  0
  4  5  1  0
  5  6  2  0
  6  7  1  0
  7  8  2  0
  8  3  1  0
  8  9  1  0
  6 10  1  0
 10 11  2  0
 11 12  1  0
 12 13  2  0
 13 14  1  0
 14 15  1  0
 15 16  1  0
 14 17  2  0
 17 18  1  0
 18 19  1  0
 17 20  1  0
 20 21  2  0
 21 12  1  0
 21 22  1  0
 22 23  2  0
 22 24  1  0
 24 10  1  0
 24 25  1  0
 25 26  1  0
 26 27  1  0
 27 28  1  0
 28 29  1  0
 29 30  1  0
 30 31  1  0
 31 32  1  0
 32 33  1  0
 33 28  1  0
 11 34  1  0
 34  5  1  0
 34 35  2  0
M  END
> <Smiles>
COc1cc2c(cc1O)-c1c(c3cc(OC)c(OC)cc3c(=O)n1CCCN1CCOCC1)C2=O

> <ID>
CHEMBL2177789

> <standard_value>
282

> <IC50_uM>
0.282

> <Activity>
Yes

> <pIC50>
6.549750892

> <BCI>
1

$$$$

  SciTegic03012415362D

 35 39  0  0  0  0            999 V2000
    7.7447   -0.3952    0.0000 C   0  0
    6.2524   -0.2436    0.0000 C   0  0
    5.2526   -1.3618    0.0000 C   0  0
    3.8990   -0.7455    0.0000 C   0  0
    2.6003   -1.4977    0.0000 N   0  0
    1.2990   -0.7500    0.0000 C   0  0
    1.2990    0.7500    0.0000 N   0  0
    0.0000    1.5000    0.0000 C   0  0
   -0.0031    3.0008    0.0000 S   0  0
   -1.3039    3.7494    0.0000 C   0  0
   -1.3070    5.2502    0.0000 C   0  0
   -2.6061    6.0003    0.0000 C   0  0
   -2.6061    7.5003    0.0000 C   0  0
   -1.3071    8.2503    0.0000 C   0  0
   -1.3040    9.7511    0.0000 C   0  0
   -2.6018   10.5034    0.0000 O   0  0
   -0.0032   10.4997    0.0000 N   0  0
   -0.0002   12.0006    0.0000 C   0  0
   -1.2993   12.7506    0.0000 C   0  0
   -1.2993   14.2506    0.0000 C   0  0
   -0.0002   15.0006    0.0000 C   0  0
   -0.0002   16.5006    0.0000 F   0  0
    1.2988   14.2506    0.0000 C   0  0
    1.2988   12.7506    0.0000 C   0  0
    2.5979   12.0007    0.0000 N   0  0
   -0.0080    7.5003    0.0000 C   0  0
   -0.0080    6.0003    0.0000 C   0  0
   -1.2990    0.7500    0.0000 N   0  0
   -1.2990   -0.7500    0.0000 N   0  0
   -2.4133   -1.7530    0.0000 C   0  0
   -1.8032   -3.1233    0.0000 C   0  0
   -0.3114   -2.9665    0.0000 C   0  0
    0.0000   -1.5000    0.0000 C   0  0
    4.0317    0.7359    0.0000 N   0  0
    5.4979    1.0528    0.0000 N   0  0
  1  2  1  0
  2  3  2  0
  3  4  1  0
  4  5  1  0
  5  6  1  0
  6  7  2  0
  7  8  1  0
  8  9  1  0
  9 10  1  0
 10 11  1  0
 11 12  2  0
 12 13  1  0
 13 14  2  0
 14 15  1  0
 15 16  2  0
 15 17  1  0
 17 18  1  0
 18 19  2  0
 19 20  1  0
 20 21  2  0
 21 22  1  0
 21 23  1  0
 23 24  2  0
 24 18  1  0
 24 25  1  0
 14 26  1  0
 26 27  2  0
 27 11  1  0
  8 28  2  0
 28 29  1  0
 29 30  1  0
 30 31  2  0
 31 32  1  0
 32 33  2  0
 33  6  1  0
 33 29  1  0
  4 34  2  0
 34 35  1  0
 35  2  1  0
M  END
> <Smiles>
Cc1cc(Nc2nc(SCc3ccc(C(=O)Nc4ccc(F)cc4N)cc3)nn3cccc23)n[nH]1

> <ID>
CHEMBL5085693

> <standard_value>
282

> <IC50_uM>
0.282

> <Activity>
Yes

> <pIC50>
6.549750892

> <BCI>
1

$$$$

  SciTegic03012415362D

 34 39  0  0  0  0            999 V2000
    3.8983   -0.7459    0.0000 C   0  0
    2.6003   -1.4977    0.0000 O   0  0
    1.2990   -0.7500    0.0000 C   0  0
    1.2990    0.7500    0.0000 C   0  0
    0.0000    1.5000    0.0000 C   0  0
    0.0000    3.0000    0.0000 C   0  0
   -1.2991    3.7500    0.0000 C   0  0
   -2.5981    3.0000    0.0000 N   0  0
   -3.8994    3.7477    0.0000 C   0  0
   -5.1981    2.9954    0.0000 C   0  0
   -6.4994    3.7432    0.0000 C   0  0
   -7.7981    2.9909    0.0000 N   0  0
   -9.1516    3.6072    0.0000 C   0  0
  -10.1514    2.4890    0.0000 N   0  0
   -9.3969    1.1926    0.0000 C   0  0
   -7.9308    1.5096    0.0000 N   0  0
   -2.5981    1.5000    0.0000 C   0  0
   -3.8971    0.7500    0.0000 O   0  0
   -1.2990    0.7500    0.0000 C   0  0
   -1.2990   -0.7500    0.0000 C   0  0
    0.0000   -1.5000    0.0000 C   0  0
   -0.0031   -3.0008    0.0000 O   0  0
   -1.3032   -3.7490    0.0000 C   0  0
   -0.9876    5.2165    0.0000 C   0  0
   -1.8692    6.4288    0.0000 C   0  0
   -1.2591    7.7991    0.0000 C   0  0
    0.2327    7.9559    0.0000 C   0  0
    1.1144    6.7424    0.0000 C   0  0
    0.5042    5.3733    0.0000 C   0  0
    1.1143    4.0030    0.0000 C   0  0
    2.5815    3.6910    0.0000 O   0  0
    0.5446    9.4223    0.0000 O   0  0
   -0.7544   10.1723    0.0000 C   0  0
   -1.8691    9.1686    0.0000 O   0  0
  1  2  1  0
  2  3  1  0
  3  4  2  0
  4  5  1  0
  5  6  1  0
  6  7  2  0
  7  8  1  0
  8  9  1  0
  9 10  1  0
 10 11  1  0
 11 12  1  0
 12 13  1  0
 13 14  2  0
 14 15  1  0
 15 16  2  0
 16 12  1  0
  8 17  1  0
 17 18  2  0
 17 19  1  0
 19  5  2  0
 19 20  1  0
 20 21  2  0
 21  3  1  0
 21 22  1  0
 22 23  1  0
  7 24  1  0
 24 25  2  0
 25 26  1  0
 26 27  2  0
 27 28  1  0
 28 29  2  0
 29 24  1  0
 29 30  1  0
 30  6  1  0
 30 31  2  0
 27 32  1  0
 32 33  1  0
 33 34  1  0
 34 26  1  0
M  END
> <Smiles>
COc1cc2c3c(n(CCCn4cncn4)c(=O)c2cc1OC)-c1cc2c(cc1C3=O)OCO2.Cl

> <ID>
CHEMBL557541

> <standard_value>
288

> <IC50_uM>
0.288

> <Activity>
Yes

> <pIC50>
6.540607512

> <BCI>
1

> <RemovedSalts>
HCl

$$$$

  SciTegic03012415362D

 25 24  0  0  0  0            999 V2000
    0.0000    0.0000    0.0000 F   0  0
   -0.5000    0.8660    0.0000 C   0  0
   -1.3660    0.3660    0.0000 F   0  0
    0.3660    1.3660    0.0000 F   0  0
   -1.0000    1.7321    0.0000 C   0  0
   -1.5000    2.5981    0.0000 F   0  0
   -0.1340    2.2321    0.0000 F   0  0
   -1.8660    1.2321    0.0000 P   0  5
   -1.0872    1.0494    0.0000 F   0  0
   -2.1551    0.2747    0.0000 F   0  0
   -2.2471    2.1566    0.0000 F   0  0
   -2.8396    1.0037    0.0000 C   0  0
   -2.9024    0.0057    0.0000 F   0  0
   -3.9614    1.4298    0.0000 F   0  0
   -3.7425    0.2133    0.0000 C   0  0
   -3.3294   -0.6974    0.0000 F   0  0
   -4.4949   -0.4454    0.0000 F   0  0
   -4.5905    0.7432    0.0000 F   0  0
   -2.9588    1.7278    0.0000 C   0  0
   -3.5410    0.9147    0.0000 F   0  0
   -3.0216    2.7258    0.0000 F   0  0
   -3.8695    2.1409    0.0000 C   0  0
   -4.6618    1.5307    0.0000 F   0  0
   -4.7802    2.5540    0.0000 F   0  0
   -3.7373    3.1321    0.0000 F   0  0
  1  2  1  0
  2  3  1  0
  2  4  1  0
  2  5  1  0
  5  6  1  0
  5  7  1  0
  5  8  1  0
  8  9  1  0
  8 10  1  0
  8 11  1  0
  8 12  1  0
 12 13  1  0
 12 14  1  0
 12 15  1  0
 15 16  1  0
 15 17  1  0
 15 18  1  0
  8 19  1  0
 19 20  1  0
 19 21  1  0
 19 22  1  0
 22 23  1  0
 22 24  1  0
 22 25  1  0
M  CHG  1   8  -1
M  END
> <Smiles>
CCCCCCCCCCCCCCCCCC[n+]1ccn(C)c1.FC(F)(F)C(F)(F)[P-](F)(F)(F)(C(F)(F)C(F)(F)F)C(F)(F)C(F)(F)F

> <ID>
CHEMBL593914

> <standard_value>
288

> <IC50_uM>
0.288

> <Activity>
Yes

> <pIC50>
6.540607512

> <BCI>
1

$$$$

  SciTegic03012415362D

 20 22  0  0  0  0            999 V2000
    7.7802    3.0211    0.0000 C   0  0
    7.7876    1.5211    0.0000 O   0  0
    6.4920    0.7636    0.0000 C   0  0
    6.4972   -0.7364    0.0000 C   0  0
    5.2007   -1.4909    0.0000 C   0  0
    3.8990   -0.7455    0.0000 C   0  0
    2.6003   -1.4977    0.0000 N   0  0
    2.6030   -2.9977    0.0000 C   0  0
    1.2990   -0.7500    0.0000 C   0  0
    1.2990    0.7500    0.0000 N   0  0
    0.0000    1.5000    0.0000 C   0  0
    0.0000    3.0000    0.0000 C   0  0
   -1.2990    0.7500    0.0000 N   0  0
   -1.2990   -0.7500    0.0000 C   0  0
   -2.4133   -1.7530    0.0000 N   0  0
   -1.8032   -3.1233    0.0000 C   0  0
   -0.3114   -2.9665    0.0000 C   0  0
    0.0000   -1.5000    0.0000 C   0  0
    3.8939    0.7546    0.0000 C   0  0
    5.1903    1.5091    0.0000 C   0  0
  1  2  1  0
  2  3  1  0
  3  4  2  0
  4  5  1  0
  5  6  2  0
  6  7  1  0
  7  8  1  0
  7  9  1  0
  9 10  2  0
 10 11  1  0
 11 12  1  0
 11 13  2  0
 13 14  1  0
 14 15  1  0
 15 16  1  0
 16 17  2  0
 17 18  1  0
 18  9  1  0
 18 14  2  0
  6 19  1  0
 19 20  2  0
 20  3  1  0
M  END
> <Smiles>
COc1ccc(N(C)c2nc(C)nc3[nH]ccc23)cc1

> <ID>
CHEMBL1275943

> <standard_value>
288

> <IC50_uM>
0.288

> <Activity>
Yes

> <pIC50>
6.540607512

> <BCI>
1

$$$$

  SciTegic03012415362D

 32 36  0  0  0  0            999 V2000
    3.8983   -0.7459    0.0000 C   0  0
    2.6003   -1.4977    0.0000 O   0  0
    1.2990   -0.7500    0.0000 C   0  0
    1.2990    0.7500    0.0000 C   0  0
    0.0000    1.5000    0.0000 C   0  0
    0.0000    3.0000    0.0000 C   0  0
   -1.2991    3.7500    0.0000 C   0  0
   -2.5981    3.0000    0.0000 N   0  0
   -3.8994    3.7477    0.0000 C   0  0
   -5.1981    2.9954    0.0000 C   0  0
   -6.4994    3.7432    0.0000 C   0  0
   -7.7981    2.9909    0.0000 N   0  0
   -9.0998    3.7363    0.0000 C   0  0
  -10.3962    2.9818    0.0000 C   0  0
  -10.3910    1.4818    0.0000 O   0  0
   -9.0894    0.7363    0.0000 C   0  0
   -7.7929    1.4908    0.0000 C   0  0
   -2.5981    1.5000    0.0000 C   0  0
   -3.8971    0.7500    0.0000 O   0  0
   -1.2990    0.7500    0.0000 C   0  0
   -1.2990   -0.7500    0.0000 C   0  0
    0.0000   -1.5000    0.0000 C   0  0
   -0.0031   -3.0008    0.0000 O   0  0
   -1.3032   -3.7490    0.0000 C   0  0
   -0.9876    5.2165    0.0000 C   0  0
   -1.8692    6.4288    0.0000 N   0  0
   -1.2591    7.7991    0.0000 C   0  0
    0.2327    7.9559    0.0000 C   0  0
    1.1144    6.7424    0.0000 C   0  0
    0.5042    5.3733    0.0000 C   0  0
    1.1143    4.0030    0.0000 C   0  0
    2.5815    3.6910    0.0000 O   0  0
  1  2  1  0
  2  3  1  0
  3  4  2  0
  4  5  1  0
  5  6  1  0
  6  7  2  0
  7  8  1  0
  8  9  1  0
  9 10  1  0
 10 11  1  0
 11 12  1  0
 12 13  1  0
 13 14  1  0
 14 15  1  0
 15 16  1  0
 16 17  1  0
 17 12  1  0
  8 18  1  0
 18 19  2  0
 18 20  1  0
 20  5  2  0
 20 21  1  0
 21 22  2  0
 22  3  1  0
 22 23  1  0
 23 24  1  0
  7 25  1  0
 25 26  2  0
 26 27  1  0
 27 28  2  0
 28 29  1  0
 29 30  2  0
 30 25  1  0
 30 31  1  0
 31  6  1  0
 31 32  2  0
M  END
> <Smiles>
COc1cc2c3c(n(CCCN4CCOCC4)c(=O)c2cc1OC)-c1ncccc1C3=O

> <ID>
CHEMBL1836115

> <standard_value>
290

> <IC50_uM>
0.29

> <Activity>
Yes

> <pIC50>
6.537602002

> <BCI>
1

$$$$

  SciTegic03012415362D

 25 28  0  0  0  0            999 V2000
    3.8801   -8.2575    0.0000 C   0  0
    2.5826   -7.5048    0.0000 O   0  0
    2.5847   -6.0040    0.0000 C   0  0
    3.8864   -5.2585    0.0000 C   0  0
    3.8915   -3.7585    0.0000 C   0  0
    2.5951   -3.0039    0.0000 C   0  0
    2.5973   -1.5031    0.0000 C   0  0
    3.8976   -0.7553    0.0000 O   0  0
    1.2990   -0.7500    0.0000 N   0  0
    1.2990    0.7500    0.0000 C   0  0
    2.5981    1.5000    0.0000 C   0  0
    2.5981    3.0000    0.0000 C   0  0
    1.2990    3.7500    0.0000 C   0  0
    0.0000    3.0000    0.0000 C   0  0
    0.0000    1.5000    0.0000 C   0  0
   -1.2990    0.7500    0.0000 S   0  0
   -1.2990   -0.7500    0.0000 C   0  0
   -2.5981   -1.5000    0.0000 C   0  0
   -2.5981   -3.0000    0.0000 C   0  0
   -1.2990   -3.7500    0.0000 C   0  0
    0.0000   -3.0000    0.0000 C   0  0
    0.0000   -1.5000    0.0000 C   0  0
    1.2935   -3.7495    0.0000 C   0  0
    1.2883   -5.2495    0.0000 C   0  0
   -0.0133   -5.9950    0.0000 F   0  0
  1  2  1  0
  2  3  1  0
  3  4  2  0
  4  5  1  0
  5  6  2  0
  6  7  1  0
  7  8  2  0
  7  9  1  0
  9 10  1  0
 10 11  2  0
 11 12  1  0
 12 13  2  0
 13 14  1  0
 14 15  2  0
 15 10  1  0
 15 16  1  0
 16 17  1  0
 17 18  2  0
 18 19  1  0
 19 20  2  0
 20 21  1  0
 21 22  2  0
 22 17  1  0
 22  9  1  0
  6 23  1  0
 23 24  2  0
 24  3  1  0
 24 25  1  0
M  END
> <Smiles>
COc1ccc(C(=O)N2c3ccccc3Sc3ccccc32)cc1F

> <ID>
CHEMBL2337945

> <standard_value>
290

> <IC50_uM>
0.29

> <Activity>
Yes

> <pIC50>
6.537602002

> <BCI>
1

$$$$

  SciTegic03012415362D

 32 36  0  0  0  0            999 V2000
    2.5951   -3.0031    0.0000 C   0  0
    2.5973   -1.5031    0.0000 O   0  0
    1.2990   -0.7500    0.0000 C   0  0
    1.2990    0.7500    0.0000 C   0  0
    0.0000    1.5000    0.0000 N   0  0
   -1.2990    0.7500    0.0000 C   0  0
   -1.2990   -0.7500    0.0000 C   0  0
    0.0000   -1.5000    0.0000 C   0  0
   -2.7248   -1.2135    0.0000 C   0  0
   -3.1882   -2.6402    0.0000 O   0  0
   -3.6065    0.0000    0.0000 C   0  0
   -2.7248    1.2135    0.0000 C   0  0
   -3.3339    2.5831    0.0000 N   0  0
   -2.4537    3.7988    0.0000 C   0  0
   -3.0656    5.1692    0.0000 C   0  0
   -2.1854    6.3848    0.0000 C   0  0
   -2.7972    7.7553    0.0000 N   0  0
   -1.9193    8.9716    0.0000 C   0  0
   -2.5336   10.3400    0.0000 C   0  0
   -4.0259   10.4923    0.0000 C   0  0
   -4.6402   11.8607    0.0000 O   0  0
   -4.9038    9.2761    0.0000 C   0  0
   -4.2896    7.9076    0.0000 C   0  0
   -4.8257    2.7399    0.0000 C   0  0
   -5.4358    4.1102    0.0000 O   0  0
   -5.7073    1.5263    0.0000 C   0  0
   -7.1991    1.6831    0.0000 C   0  0
   -8.0808    0.4696    0.0000 C   0  0
   -9.5726    0.6264    0.0000 F   0  0
   -7.4707   -0.9007    0.0000 C   0  0
   -5.9789   -1.0575    0.0000 C   0  0
   -5.0972    0.1560    0.0000 C   0  0
  1  2  1  0
  2  3  1  0
  3  4  2  0
  4  5  1  0
  5  6  2  0
  6  7  1  0
  7  8  2  0
  8  3  1  0
  7  9  1  0
  9 10  2  0
  9 11  1  0
 11 12  2  0
 12  6  1  0
 12 13  1  0
 13 14  1  0
 14 15  1  0
 15 16  1  0
 16 17  1  0
 17 18  1  0
 18 19  1  0
 19 20  1  0
 20 21  1  0
 20 22  1  0
 22 23  1  0
 23 17  1  0
 13 24  1  0
 24 25  2  0
 24 26  1  0
 26 27  2  0
 27 28  1  0
 28 29  1  0
 28 30  2  0
 30 31  1  0
 31 32  2  0
 32 11  1  0
 32 26  1  0
M  END
> <Smiles>
COc1cnc2c(c1)C(=O)c1c-2n(CCCN2CCC(O)CC2)c(=O)c2cc(F)ccc12

> <ID>
CHEMBL4101133

> <standard_value>
295

> <IC50_uM>
0.295

> <Activity>
Yes

> <pIC50>
6.530177984

> <BCI>
1

$$$$

  SciTegic03012415362D

 22 24  0  0  1  0            999 V2000
   -4.6575   -7.1727    0.0000 C   0  0
   -3.2441   -6.6705    0.0000 C   0  0
   -1.8348   -6.1949    0.0000 C   0  0  1  0  0  0
   -0.6797   -7.1519    0.0000 O   0  0
   -2.8675   -5.1069    0.0000 C   0  0  1  0  0  0
   -4.3525   -5.3058    0.0000 C   0  0
   -4.9243   -6.6925    0.0000 O   0  0
   -2.1519   -3.7886    0.0000 O   0  0
   -0.6928   -4.0817    0.0000 C   0  0  1  0  0  0
    0.3114   -2.9665    0.0000 N   0  0
    1.8032   -3.1233    0.0000 C   0  0
    2.4133   -1.7530    0.0000 C   0  0
    3.8805   -1.4410    0.0000 Cl  0  0
    1.2990   -0.7500    0.0000 C   0  0
    1.2990    0.7500    0.0000 C   0  0
    2.5981    1.5000    0.0000 N   0  0
    0.0000    1.5000    0.0000 N   0  0
   -1.2990    0.7500    0.0000 C   0  0
   -1.2990   -0.7500    0.0000 N   0  0
    0.0000   -1.5000    0.0000 C   0  0
   -0.4810   -5.5489    0.0000 C   0  0  2  0  0  0
    0.8417   -6.2564    0.0000 O   0  0
  1  2  3  0
  2  3  1  0
  3  4  1  6
  3  5  1  0
  5  6  1  1
  6  7  1  0
  5  8  1  0
  8  9  1  0
  9 10  1  1
 10 11  1  0
 11 12  2  0
 12 13  1  0
 12 14  1  0
 14 15  2  0
 15 16  1  0
 15 17  1  0
 17 18  2  0
 18 19  1  0
 19 20  2  0
 20 14  1  0
 20 10  1  0
  9 21  1  0
 21  3  1  0
 21 22  1  6
M  END
> <Smiles>
C#C[C@@]1(O)[C@@H](CO)O[C@@H](n2cc(Cl)c3c(N)ncnc32)[C@@H]1O

> <ID>
CHEMBL4276891

> <standard_value>
299

> <IC50_uM>
0.299

> <Activity>
Yes

> <pIC50>
6.524328812

> <BCI>
1

$$$$

  SciTegic03012415362D

 27 28  0  0  1  0            999 V2000
    5.3192   -0.2597    0.0000 C   0  0
    4.1500    0.6800    0.0000 C   0  0  1  0  0  0
    2.5200    0.3600    0.0000 C   0  0
    2.3100   -1.1700    0.0000 C   0  0
    1.3300   -1.6300    0.0000 C   0  0
    0.1900   -1.1200    0.0000 C   0  0
    0.0000    0.3600    0.0000 C   0  0
   -1.5600    0.8100    0.0000 C   0  0  2  0  0  0
   -3.0100    0.3400    0.0000 C   0  0
   -3.9100    1.5700    0.0000 C   0  0  2  0  0  0
   -5.4100    1.5671    0.0000 O   0  0
   -3.0100    2.8100    0.0000 C   0  0
   -1.5600    2.3300    0.0000 C   0  0  1  0  0  0
    0.0000    2.8600    0.0000 C   0  0  2  0  0  0
    0.7452    2.1932    0.0000 O   0  0
    0.3300    4.3600    0.0000 C   0  0  2  0  0  0
   -0.6480    5.4889    0.0000 S   0  0  3  0  0  0
   -2.1204    5.2024    0.0000 O   0  0
   -0.1602    6.9083    0.0000 C   0  0
   -1.1447    8.0410    0.0000 C   0  0
   -0.6569    9.4604    0.0000 N   0  0
   -1.6409   10.5925    0.0000 C   0  0
    0.8155    9.7469    0.0000 C   0  0
    2.3100    4.3400    0.0000 C   0  0
    2.6000    2.8000    0.0000 C   0  0
    1.8719    2.1146    0.0000 O   0  0
    4.1100    2.4200    0.0000 O   0  0
  2  1  1  1
  2  3  1  0
  3  4  1  0
  4  5  1  0
  5  6  1  0
  6  7  2  0
  8  7  1  6
  8  9  1  0
  9 10  1  0
 10 11  1  6
 10 12  1  0
 13 12  1  1
 13  8  1  0
 13 14  1  0
 14 15  1  1
 14 16  1  0
 16 17  1  6
 17 18  2  0
 17 19  1  4
 19 20  1  0
 20 21  1  0
 21 22  1  0
 21 23  1  0
 16 24  1  0
 24 25  1  0
 25 26  2  0
 25 27  1  0
 27  2  1  0
M  END
> <Smiles>
C[C@H]1CCC/C=C/[C@@H]2C[C@H](O)C[C@H]2[C@H](O)[C@H]([S+]([O-])CCN(C)C)CC(=O)O1

> <ID>
CHEMBL333847

> <standard_value>
300

> <IC50_uM>
0.3

> <Activity>
Yes

> <pIC50>
6.522878745

> <BCI>
1

$$$$

  SciTegic03012415362D

 42 49  0  0  1  0            999 V2000
    4.1900   -1.3600    0.0000 C   0  0
    2.6900   -1.3600    0.0000 C   0  0  1  0  0  0
    1.8400   -2.8200    0.0000 C   0  0  1  0  0  0
    2.5900   -4.1179    0.0000 O   0  0
    4.0908   -4.1184    0.0000 C   0  0
    4.8416   -5.4179    0.0000 C   0  0
    6.3425   -5.4183    0.0000 O   0  0
    7.0933   -6.7178    0.0000 C   0  0  1  0  0  0
    6.2357   -8.1652    0.0000 O   0  0
    7.0751   -9.6256    0.0000 C   0  0  2  0  0  0
    6.4614  -10.6800    0.0000 O   0  0
    6.7772  -11.8472    0.0000 C   0  0  1  0  0  0
    7.9677  -10.9347    0.0000 C   0  0
    7.8230  -12.4558    0.0000 C   0  0
    8.9939  -12.1537    0.0000 C   0  0
    9.6075  -11.0993    0.0000 C   0  0  1  0  0  0
   11.2919  -11.1076    0.0000 C   0  0  2  0  0  0
   12.0364  -12.4098    0.0000 C   0  0
   12.1419   -9.6469    0.0000 C   0  0
   11.3075   -8.1780    0.0000 C   0  0
    9.6095   -8.1732    0.0000 C   0  0  1  0  0  0
    8.7751   -6.7042    0.0000 C   0  0  1  0  0  0
    9.5245   -5.4048    0.0000 C   0  0
    8.7595   -9.6339    0.0000 C   0  0  1  0  0  0
    8.6055  -11.0715    0.0000 O   0  0
    7.6710  -11.6037    0.0000 O   0  0
    0.1500   -2.8200    0.0000 O   0  0
   -0.6900   -1.3600    0.0000 C   0  0  2  0  0  0
   -1.9100   -1.3600    0.0000 O   0  0
   -2.7600   -0.5000    0.0000 C   0  0  1  0  0  0
   -1.3725    0.0700    0.0000 C   0  0
   -2.7600    0.7100    0.0000 C   0  0
   -1.9100    1.5700    0.0000 C   0  0
   -0.6900    1.5700    0.0000 C   0  0  1  0  0  0
    0.1500    3.0300    0.0000 C   0  0  2  0  0  0
   -0.6010    4.3285    0.0000 C   0  0
    1.8400    3.0300    0.0000 C   0  0
    2.6900    1.5700    0.0000 C   0  0
    1.8400    0.1000    0.0000 C   0  0  2  0  0  0
    0.1500    0.1000    0.0000 C   0  0  1  0  0  0
   -1.1700    0.6900    0.0000 O   0  0
   -2.1000    0.1500    0.0000 O   0  0
  2  1  1  1
  2  3  1  0
  3  4  1  1
  4  5  1  0
  5  6  1  0
  6  7  1  0
  8  7  1  6
  8  9  1  0
 10  9  1  1
 10 11  1  0
 11 12  1  0
 12 13  1  1
 12 14  1  0
 14 15  1  0
 16 15  1  6
 16 17  1  0
 17 18  1  1
 17 19  1  0
 19 20  1  0
 21 20  1  6
 21 22  1  0
 22  8  1  0
 22 23  1  6
 21 24  1  0
 24 10  1  0
 24 16  1  0
 24 25  1  1
 25 26  1  0
 26 12  1  0
  3 27  1  0
 28 27  1  6
 28 29  1  0
 29 30  1  0
 30 31  1  6
 30 32  1  0
 32 33  1  0
 34 33  1  1
 34 35  1  0
 35 36  1  6
 35 37  1  0
 37 38  1  0
 39 38  1  1
 39  2  1  0
 39 40  1  0
 40 28  1  0
 40 34  1  0
 40 41  1  6
 41 42  1  0
 42 30  1  0
M  END
> <Smiles>
C[C@H]1[C@@H](OCCO[C@H]2O[C@@H]3O[C@@]4(C)CC[C@H]5[C@H](C)CC[C@@H]([C@H]2C)[C@@]35OO4)O[C@@H]2O[C@@]3(C)CC[C@H]4[C@H](C)CC[C@@H]1[C@@]24OO3

> <ID>
CHEMBL508289

> <standard_value>
300

> <IC50_uM>
0.3

> <Activity>
Yes

> <pIC50>
6.522878745

> <BCI>
1

$$$$

  SciTegic03012415362D

 47 50  0  0  1  0            999 V2000
   -2.4556   -0.6177    0.0000 C   0  0
   -3.4749   -1.7182    0.0000 C   0  0
   -4.9132   -1.4394    0.0000 C   0  0
   -5.5289   -0.0730    0.0000 C   0  0  2  0  0  0
   -7.0187   -0.2470    0.0000 C   0  0
   -5.2400    1.4229    0.0000 C   0  0
   -4.2849    2.6275    0.0000 C   0  0  2  0  0  0
   -5.2499    3.7758    0.0000 C   0  0
   -2.9298    3.3631    0.0000 O   0  0
   -1.3990    3.5270    0.0000 C   0  0
   -0.9329    4.9527    0.0000 O   0  0
   -0.2777    2.5059    0.0000 C   0  0
    0.0898    1.0584    0.0000 C   0  0  2  0  0  0
   -1.3708    0.7139    0.0000 C   0  0
   -1.9564   -0.6591    0.0000 C   0  0
   -3.4457   -0.8383    0.0000 C   0  0
   -4.3454    0.3619    0.0000 C   0  0
   -5.8347    0.1828    0.0000 O   0  0
   -3.7559    1.7412    0.0000 C   0  0
   -2.2667    1.9203    0.0000 C   0  0
    1.6248    1.1201    0.0000 N   0  0
    2.5418   -0.0797    0.0000 C   0  0
    4.0251    0.1434    0.0000 O   0  0
    2.0301   -1.4637    0.0000 C   0  0  1  0  0  0
    0.5518   -1.7213    0.0000 C   0  0
   -0.4112   -0.5701    0.0000 C   0  0
   -1.8934   -0.6918    0.0000 C   0  0
   -2.6805   -1.9687    0.0000 Br  0  0
   -2.4557    0.6989    0.0000 N   0  0
   -1.3073    1.6626    0.0000 C   0  0
   -1.2552    3.1617    0.0000 C   0  0
    0.0690    3.8662    0.0000 C   0  0
    1.3413    3.0716    0.0000 C   0  0
    1.2893    1.5725    0.0000 C   0  0
   -0.0350    0.8680    0.0000 C   0  0
    3.0243   -2.6051    0.0000 N   0  0
    4.5013   -2.8664    0.0000 C   0  0
    2.4925   -3.9813    0.0000 C   0  0
    3.3927   -5.1811    0.0000 O   0  0
    1.0350   -4.1059    0.0000 C   0  0  2  0  0  0
    0.2912   -2.8033    0.0000 C   0  0
    0.1835   -5.3026    0.0000 N   0  0
   -1.2591   -5.0392    0.0000 C   0  0
   -2.2671   -6.1501    0.0000 O   0  0
   -1.6711   -3.5941    0.0000 C   0  0  1  0  0  0
   -0.6018   -2.5421    0.0000 C   0  0
   -3.0765   -3.1686    0.0000 C   0  0
  1  2  1  0
  2  3  2  0
  3  4  1  0
  4  5  1  6
  4  6  1  0
  6  7  1  0
  7  8  1  6
  7  9  1  0
  9 10  1  0
 10 11  2  0
 10 12  1  0
 12 13  1  0
 13 14  1  1
 14 15  2  0
 15 16  1  0
 16 17  2  0
 17 18  1  0
 17 19  1  0
 19 20  2  0
 20 14  1  0
 13 21  1  0
 21 22  1  0
 22 23  2  0
 22 24  1  0
 24 25  1  6
 25 26  1  0
 26 27  2  0
 27 28  1  0
 27 29  1  0
 29 30  1  0
 30 31  2  0
 31 32  1  0
 32 33  2  0
 33 34  1  0
 34 35  2  0
 35 26  1  0
 35 30  1  0
 24 36  1  0
 36 37  1  0
 36 38  1  0
 38 39  2  0
 38 40  1  0
 40 41  1  1
 40 42  1  0
 42 43  1  0
 43 44  2  0
 43 45  1  0
 45 46  1  6
 45 47  1  0
 47  2  1  0
M  END
> <Smiles>
C/C1=C\[C@H](C)C[C@H](C)OC(=O)C[C@H](c2ccc(O)cc2)NC(=O)[C@@H](Cc2c(Br)[nH]c3ccccc23)N(C)C(=O)[C@H](C)NC(=O)[C@@H](C)C1

> <ID>
CHEMBL257166

> <standard_value>
300

> <IC50_uM>
0.3

> <Activity>
Yes

> <pIC50>
6.522878745

> <BCI>
1

$$$$

  SciTegic03012415362D

 43 46  0  0  0  0            999 V2000
   -0.4585  -12.2246    0.0000 C   0  0
    0.2897  -10.9245    0.0000 O   0  0
    1.7905  -10.9214    0.0000 C   0  0
    2.5405  -12.2205    0.0000 C   0  0
    4.0405  -12.2205    0.0000 C   0  0
    4.7905  -10.9215    0.0000 C   0  0
    6.2914  -10.9185    0.0000 C   0  0
    7.0400   -9.6177    0.0000 C   0  0
    8.5408   -9.6147    0.0000 C   0  0
    9.2930  -10.9124    0.0000 O   0  0
    9.2894   -8.3139    0.0000 C   0  0
   10.7894   -8.3087    0.0000 C   0  0
   11.5350   -7.0071    0.0000 C   0  0
   13.0358   -7.0050    0.0000 O   0  0
   13.7884   -8.3026    0.0000 C   0  0
   10.7805   -5.7106    0.0000 C   0  0
   11.5238   -4.4068    0.0000 O   0  0
   10.7676   -3.1114    0.0000 C   0  0
    9.2806   -5.7157    0.0000 C   0  0
    8.5230   -4.4201    0.0000 O   0  0
    7.0231   -4.4274    0.0000 C   0  0
    8.5350   -7.0173    0.0000 C   0  0
    4.0406   -9.6224    0.0000 C   0  0
    2.5405   -9.6223    0.0000 C   0  0
    1.7928   -8.3210    0.0000 O   0  0
    2.5451   -7.0223    0.0000 C   0  0
    1.7974   -5.7210    0.0000 C   0  0
    0.2974   -5.7184    0.0000 O   0  0
    2.5497   -4.4224    0.0000 N   0  0
    1.8032   -3.1233    0.0000 C   0  0
    2.4133   -1.7530    0.0000 N   0  0
    1.2990   -0.7500    0.0000 C   0  0
    1.2990    0.7500    0.0000 C   0  0
    0.0000    1.5000    0.0000 C   0  0
   -1.2990    0.7500    0.0000 C   0  0
   -2.6003    1.4977    0.0000 O   0  0
   -3.8990    0.7455    0.0000 C   0  0
   -5.1996    1.4928    0.0000 F   0  0
   -3.8964   -0.7545    0.0000 F   0  0
   -5.1966   -0.0070    0.0000 F   0  0
   -1.2990   -0.7500    0.0000 C   0  0
    0.0000   -1.5000    0.0000 C   0  0
    0.3114   -2.9665    0.0000 S   0  0
  1  2  1  0
  2  3  1  0
  3  4  2  0
  4  5  1  0
  5  6  2  0
  6  7  1  0
  7  8  2  0
  8  9  1  0
  9 10  2  0
  9 11  1  0
 11 12  2  0
 12 13  1  0
 13 14  1  0
 14 15  1  0
 13 16  2  0
 16 17  1  0
 17 18  1  0
 16 19  1  0
 19 20  1  0
 20 21  1  0
 19 22  2  0
 22 11  1  0
  6 23  1  0
 23 24  2  0
 24  3  1  0
 24 25  1  0
 25 26  1  0
 26 27  1  0
 27 28  2  0
 27 29  1  0
 29 30  1  0
 30 31  2  0
 31 32  1  0
 32 33  2  0
 33 34  1  0
 34 35  2  0
 35 36  1  0
 36 37  1  0
 37 38  1  0
 37 39  1  0
 37 40  1  0
 35 41  1  0
 41 42  2  0
 42 32  1  0
 42 43  1  0
 43 30  1  0
M  END
> <Smiles>
COc1ccc(/C=C/C(=O)c2cc(OC)c(OC)c(OC)c2)cc1OCC(=O)Nc1nc2ccc(OC(F)(F)F)cc2s1

> <ID>
CHEMBL2036124

> <standard_value>
300

> <IC50_uM>
0.3

> <Activity>
Yes

> <pIC50>
6.522878745

> <BCI>
1

$$$$

  SciTegic03012415362D

 31 33  0  0  0  0            999 V2000
    3.8983   -0.7459    0.0000 C   0  0
    2.6003   -1.4977    0.0000 O   0  0
    1.2990   -0.7500    0.0000 C   0  0
    1.2990    0.7500    0.0000 C   0  0
    0.0000    1.5000    0.0000 C   0  0
   -1.2990    0.7500    0.0000 C   0  0
   -2.5987    1.5004    0.0000 C   0  0
   -2.7390    2.9810    0.0000 C   0  0
   -4.2067    3.2905    0.0000 C   0  0
   -4.8211    4.6570    0.0000 C   0  0
   -6.3142    4.8094    0.0000 C   0  0
   -6.9296    6.1782    0.0000 C   0  0
   -6.0520    7.3947    0.0000 O   0  0
   -8.4227    6.3305    0.0000 C   0  0
   -9.0399    7.6977    0.0000 C   0  0
  -10.5324    7.8470    0.0000 C   0  0
  -11.1470    9.2162    0.0000 O   0  0
  -10.2697   10.4329    0.0000 C   0  0
  -11.4079    6.6290    0.0000 C   0  0
  -12.9016    6.7752    0.0000 O   0  0
  -13.7754    5.5560    0.0000 C   0  0
  -10.7909    5.2618    0.0000 C   0  0
  -11.6644    4.0413    0.0000 O   0  0
  -11.0454    2.6750    0.0000 C   0  0
   -9.2983    5.1126    0.0000 C   0  0
   -4.9546    1.9903    0.0000 N   0  0
   -3.9492    0.8772    0.0000 N   0  0
   -1.2990   -0.7500    0.0000 C   0  0
    0.0000   -1.5000    0.0000 C   0  0
   -0.0031   -3.0008    0.0000 O   0  0
   -1.3032   -3.7490    0.0000 C   0  0
  1  2  1  0
  2  3  1  0
  3  4  2  0
  4  5  1  0
  5  6  2  0
  6  7  1  0
  7  8  1  0
  8  9  2  0
  9 10  1  0
 10 11  2  0
 11 12  1  0
 12 13  2  0
 12 14  1  0
 14 15  2  0
 15 16  1  0
 16 17  1  0
 17 18  1  0
 16 19  2  0
 19 20  1  0
 20 21  1  0
 19 22  1  0
 22 23  1  0
 23 24  1  0
 22 25  2  0
 25 14  1  0
  9 26  1  0
 26 27  1  0
 27  7  2  0
  6 28  1  0
 28 29  2  0
 29  3  1  0
 29 30  1  0
 30 31  1  0
M  END
> <Smiles>
COc1ccc(-c2cc(/C=C/C(=O)c3cc(OC)c(OC)c(OC)c3)[nH]n2)cc1OC

> <ID>
CHEMBL4172882

> <standard_value>
300

> <IC50_uM>
0.3

> <Activity>
Yes

> <pIC50>
6.522878745

> <BCI>
1

$$$$

  SciTegic03012415362D

 26 27  0  0  0  0            999 V2000
    3.8983   -0.7459    0.0000 C   0  0
    2.6003   -1.4977    0.0000 O   0  0
    1.2990   -0.7500    0.0000 C   0  0
    1.2990    0.7500    0.0000 C   0  0
    0.0000    1.5000    0.0000 C   0  0
   -1.2990    0.7500    0.0000 C   0  0
   -2.6003    1.4977    0.0000 C   0  0
   -3.8990    0.7455    0.0000 C   0  0
   -5.1981    1.4971    0.0000 C   0  0
   -6.4976    0.7479    0.0000 C   0  0
   -5.1976    2.9971    0.0000 O   0  0
   -3.8978   -0.7554    0.0000 C   0  0
   -5.1947   -1.5091    0.0000 C   0  0
   -5.1905   -3.0091    0.0000 C   0  0
   -6.4897   -3.7605    0.0000 O   0  0
   -7.7898   -3.0124    0.0000 C   0  0
   -3.8893   -3.7554    0.0000 C   0  0
   -3.8820   -5.2563    0.0000 O   0  0
   -2.5798   -6.0007    0.0000 C   0  0
   -2.5924   -3.0018    0.0000 C   0  0
   -1.2890   -3.7458    0.0000 O   0  0
   -0.4251   -3.2422    0.0000 C   0  0
   -2.5967   -1.5018    0.0000 C   0  0
   -1.2990   -0.7500    0.0000 C   0  0
    0.0000   -1.5000    0.0000 C   0  0
    0.0000   -2.5000    0.0000 O   0  0
  1  2  1  0
  2  3  1  0
  3  4  2  0
  4  5  1  0
  5  6  2  0
  6  7  1  0
  7  8  2  0
  8  9  1  0
  9 10  1  0
  9 11  2  0
  8 12  1  0
 12 13  2  0
 13 14  1  0
 14 15  1  0
 15 16  1  0
 14 17  2  0
 17 18  1  0
 18 19  1  0
 17 20  1  0
 20 21  1  0
 21 22  1  0
 20 23  2  0
 23 12  1  0
  6 24  1  0
 24 25  2  0
 25  3  1  0
 25 26  1  0
M  END
> <Smiles>
COc1ccc(/C=C(/C(C)=O)c2cc(OC)c(OC)c(OC)c2)cc1O

> <ID>
CHEMBL1765201

> <standard_value>
302

> <IC50_uM>
0.302

> <Activity>
Yes

> <pIC50>
6.519993057

> <BCI>
1

$$$$

  SciTegic03012415362D

 31 35  0  0  0  0            999 V2000
    2.5951   -3.0031    0.0000 C   0  0
    2.5973   -1.5031    0.0000 O   0  0
    1.2990   -0.7500    0.0000 C   0  0
    1.2990    0.7500    0.0000 C   0  0
    0.0000    1.5000    0.0000 N   0  0
   -1.2990    0.7500    0.0000 C   0  0
   -1.2990   -0.7500    0.0000 C   0  0
    0.0000   -1.5000    0.0000 C   0  0
   -2.7248   -1.2135    0.0000 C   0  0
   -3.1882   -2.6402    0.0000 O   0  0
   -3.6065    0.0000    0.0000 C   0  0
   -2.7248    1.2135    0.0000 C   0  0
   -3.3339    2.5831    0.0000 N   0  0
   -2.4537    3.7988    0.0000 C   0  0
   -3.0656    5.1692    0.0000 C   0  0
   -2.1854    6.3848    0.0000 C   0  0
   -2.7972    7.7553    0.0000 N   0  0
   -1.9171    8.9709    0.0000 C   0  0
   -2.3929   10.3800    0.0000 N   0  0
   -1.1790   11.2612    0.0000 C   0  0
    0.0342   10.3791    0.0000 C   0  0
   -0.4299    8.9527    0.0000 S   0  0
   -4.8257    2.7399    0.0000 C   0  0
   -5.4358    4.1102    0.0000 O   0  0
   -5.7073    1.5263    0.0000 C   0  0
   -7.1991    1.6831    0.0000 C   0  0
   -8.0808    0.4696    0.0000 C   0  0
   -9.5726    0.6264    0.0000 F   0  0
   -7.4707   -0.9007    0.0000 C   0  0
   -5.9789   -1.0575    0.0000 C   0  0
   -5.0972    0.1560    0.0000 C   0  0
  1  2  1  0
  2  3  1  0
  3  4  2  0
  4  5  1  0
  5  6  2  0
  6  7  1  0
  7  8  2  0
  8  3  1  0
  7  9  1  0
  9 10  2  0
  9 11  1  0
 11 12  2  0
 12  6  1  0
 12 13  1  0
 13 14  1  0
 14 15  1  0
 15 16  1  0
 16 17  1  0
 17 18  1  0
 18 19  2  0
 19 20  1  0
 20 21  1  0
 21 22  1  0
 22 18  1  0
 13 23  1  0
 23 24  2  0
 23 25  1  0
 25 26  2  0
 26 27  1  0
 27 28  1  0
 27 29  2  0
 29 30  1  0
 30 31  2  0
 31 11  1  0
 31 25  1  0
M  END
> <Smiles>
COc1cnc2c(c1)C(=O)c1c-2n(CCCNC2=NCCS2)c(=O)c2cc(F)ccc12

> <ID>
CHEMBL4063586

> <standard_value>
305

> <IC50_uM>
0.305

> <Activity>
Yes

> <pIC50>
6.515700161

> <BCI>
1

$$$$

  SciTegic03012415362D

 23 26  0  0  0  0            999 V2000
    5.0960   -3.6352    0.0000 N   0  0
    4.0146   -4.6747    0.0000 C   0  0
    4.2107   -6.1619    0.0000 N   0  0
    2.8570   -6.8080    0.0000 O   0  0
    1.8242   -5.7201    0.0000 N   0  0
    2.5536   -4.4230    0.0000 C   0  0
    1.8032   -3.1233    0.0000 C   0  0
    2.4133   -1.7530    0.0000 N   0  0
    1.2990   -0.7500    0.0000 C   0  0
    1.2990    0.7500    0.0000 C   0  0
    0.0000    1.5000    0.0000 C   0  0
   -1.2990    0.7500    0.0000 C   0  0
   -1.2990   -0.7500    0.0000 C   0  0
    0.0000   -1.5000    0.0000 C   0  0
    0.3114   -2.9665    0.0000 N   0  0
   -0.6890   -4.0818    0.0000 C   0  0
   -0.2234   -5.5086    0.0000 C   0  0
   -1.2234   -6.6267    0.0000 C   0  0
   -0.7552   -8.0517    0.0000 C   0  0
    0.7130   -8.3588    0.0000 C   0  0
    1.7131   -7.2408    0.0000 C   0  0
    3.1813   -7.5478    0.0000 Br  0  0
    1.2449   -5.8157    0.0000 C   0  0
  1  2  1  0
  2  3  2  0
  3  4  1  0
  4  5  1  0
  5  6  2  0
  6  2  1  0
  6  7  1  0
  7  8  2  0
  8  9  1  0
  9 10  2  0
 10 11  1  0
 11 12  2  0
 12 13  1  0
 13 14  2  0
 14  9  1  0
 14 15  1  0
 15  7  1  0
 15 16  1  0
 16 17  1  0
 17 18  2  0
 18 19  1  0
 19 20  2  0
 20 21  1  0
 21 22  1  0
 21 23  2  0
 23 17  1  0
M  END
> <Smiles>
Nc1nonc1-c1nc2ccccc2n1Cc1cccc(Br)c1

> <ID>
CHEMBL3422133

> <standard_value>
309.03

> <IC50_uM>
0.30903

> <Activity>
Yes

> <pIC50>
6.509999358

> <BCI>
1

$$$$

  SciTegic03012415362D

 31 35  0  0  0  0            999 V2000
    8.2930    6.3633    0.0000 O   0  0
    6.8007    6.5147    0.0000 C   0  0
    5.9236    5.3000    0.0000 N   0  0
    6.3943    3.8758    0.0000 N   0  0
    5.1852    3.0098    0.0000 C   0  0
    5.1903    1.5091    0.0000 C   0  0
    6.4920    0.7636    0.0000 C   0  0
    6.4972   -0.7364    0.0000 C   0  0
    5.2007   -1.4909    0.0000 C   0  0
    3.8990   -0.7455    0.0000 C   0  0
    2.6003   -1.4977    0.0000 N   0  0
    1.2990   -0.7500    0.0000 C   0  0
    1.2990    0.7500    0.0000 C   0  0
    0.0000    1.5000    0.0000 C   0  0
   -1.2990    0.7500    0.0000 N   0  0
   -1.2990   -0.7500    0.0000 C   0  0
   -2.5981   -1.5000    0.0000 C   0  0
   -2.5981   -3.0000    0.0000 C   0  0
   -3.8971   -3.7500    0.0000 Cl  0  0
   -1.2990   -3.7500    0.0000 C   0  0
    0.0000   -3.0000    0.0000 C   0  0
    0.0000   -1.5000    0.0000 C   0  0
    3.8939    0.7546    0.0000 C   0  0
    3.9673    3.8635    0.0000 C   0  0
    4.4236    5.2924    0.0000 C   0  0  3  0  0  0
    3.5354    6.5021    0.0000 C   0  0
    2.0413    6.4497    0.0000 C   0  0
    1.2470    7.7221    0.0000 C   0  0
    1.9518    9.0462    0.0000 C   0  0
    3.4509    9.0979    0.0000 C   0  0
    4.2452    7.8255    0.0000 C   0  0
  1  2  2  0
  2  3  1  0
  3  4  1  0
  4  5  2  0
  5  6  1  0
  6  7  2  0
  7  8  1  0
  8  9  2  0
  9 10  1  0
 10 11  1  0
 11 12  1  0
 12 13  2  0
 13 14  1  0
 14 15  2  0
 15 16  1  0
 16 17  2  0
 17 18  1  0
 18 19  1  0
 18 20  2  0
 20 21  1  0
 21 22  2  0
 22 12  1  0
 22 16  1  0
 10 23  2  0
 23  6  1  0
  5 24  1  0
 24 25  1  0
 25  3  1  0
 25 26  1  4
 26 27  2  0
 27 28  1  0
 28 29  2  0
 29 30  1  0
 30 31  2  0
 31 26  1  0
M  END
> <Smiles>
O=CN1N=C(c2cccc(Nc3ccnc4cc(Cl)ccc34)c2)CC1c1ccccc1

> <ID>
CHEMBL2417839

> <standard_value>
310

> <IC50_uM>
0.31

> <Activity>
Yes

> <pIC50>
6.508638306

> <BCI>
1

$$$$

  SciTegic03012415362D

 28 31  0  0  0  0            999 V2000
    3.8983   -0.7459    0.0000 C   0  0
    2.6003   -1.4977    0.0000 O   0  0
    1.2990   -0.7500    0.0000 C   0  0
    1.2990    0.7500    0.0000 C   0  0
    0.0000    1.5000    0.0000 C   0  0
    0.0000    3.0000    0.0000 C   0  0
   -1.2991    3.7500    0.0000 C   0  0
   -2.5981    3.0000    0.0000 N   0  0
   -3.8994    3.7477    0.0000 C   0  0
   -5.1981    2.9954    0.0000 C   0  0
   -6.4994    3.7432    0.0000 C   0  0
   -7.7973    2.9913    0.0000 N   0  0
   -2.5981    1.5000    0.0000 C   0  0
   -3.8971    0.7500    0.0000 O   0  0
   -1.2990    0.7500    0.0000 C   0  0
   -1.2990   -0.7500    0.0000 C   0  0
    0.0000   -1.5000    0.0000 C   0  0
   -0.0031   -3.0008    0.0000 O   0  0
   -1.3032   -3.7490    0.0000 C   0  0
   -0.9876    5.2165    0.0000 C   0  0
   -1.8692    6.4288    0.0000 C   0  0
   -1.2591    7.7991    0.0000 C   0  0
    0.2327    7.9559    0.0000 C   0  0
    0.8428    9.3262    0.0000 N   0  0
    1.1144    6.7424    0.0000 C   0  0
    0.5042    5.3733    0.0000 C   0  0
    1.1143    4.0030    0.0000 C   0  0
    2.5815    3.6910    0.0000 O   0  0
  1  2  1  0
  2  3  1  0
  3  4  2  0
  4  5  1  0
  5  6  1  0
  6  7  2  0
  7  8  1  0
  8  9  1  0
  9 10  1  0
 10 11  1  0
 11 12  1  0
  8 13  1  0
 13 14  2  0
 13 15  1  0
 15  5  2  0
 15 16  1  0
 16 17  2  0
 17  3  1  0
 17 18  1  0
 18 19  1  0
  7 20  1  0
 20 21  2  0
 21 22  1  0
 22 23  2  0
 23 24  1  0
 23 25  1  0
 25 26  2  0
 26 20  1  0
 26 27  1  0
 27  6  1  0
 27 28  2  0
M  END
> <Smiles>
COc1cc2c3c(n(CCCN)c(=O)c2cc1OC)-c1ccc(N)cc1C3=O

> <ID>
CHEMBL230531

> <standard_value>
316

> <IC50_uM>
0.316

> <Activity>
Yes

> <pIC50>
6.500312917

> <BCI>
1

$$$$

  SciTegic03012415362D

 28 30  0  0  0  0            999 V2000
    3.8926   -3.7566    0.0000 C   0  0
    2.5951   -3.0039    0.0000 C   0  0
    2.5973   -1.5031    0.0000 N   0  0
    3.8999   -0.7576    0.0000 C   0  0
    5.1965   -1.5117    0.0000 C   0  0
    1.2990   -0.7500    0.0000 C   0  0
    1.2990    0.7500    0.0000 C   0  0
    0.0000    1.5000    0.0000 C   0  0
   -1.2990    0.7500    0.0000 C   0  0
   -2.5987    1.5004    0.0000 C   0  0  3  0  0  0
   -2.7390    2.9810    0.0000 C   0  0
   -4.2067    3.2905    0.0000 C   0  0
   -4.8193    4.6606    0.0000 C   0  0
   -4.0353    5.9336    0.0000 C   0  0
   -4.7489    7.2530    0.0000 C   0  0
   -3.9600    8.5297    0.0000 O   0  0
   -2.4606    8.4859    0.0000 C   0  0
   -6.2483    7.2947    0.0000 C   0  0
   -6.9650    8.6133    0.0000 O   0  0
   -8.4645    8.6529    0.0000 C   0  0
   -7.0341    6.0170    0.0000 C   0  0
   -8.5345    6.0556    0.0000 O   0  0
   -9.3185    4.7768    0.0000 C   0  0
   -6.3205    4.6976    0.0000 C   0  0
   -4.9546    1.9903    0.0000 N   0  0
   -3.9492    0.8772    0.0000 N   0  0
   -1.2990   -0.7500    0.0000 C   0  0
    0.0000   -1.5000    0.0000 C   0  0
  1  2  1  0
  2  3  1  0
  3  4  1  0
  4  5  1  0
  3  6  1  0
  6  7  2  0
  7  8  1  0
  8  9  2  0
 10  9  1  4
 10 11  1  0
 11 12  1  0
 12 13  1  0
 13 14  2  0
 14 15  1  0
 15 16  1  0
 16 17  1  0
 15 18  2  0
 18 19  1  0
 19 20  1  0
 18 21  1  0
 21 22  1  0
 22 23  1  0
 21 24  2  0
 24 13  1  0
 12 25  2  0
 25 26  1  0
 26 10  1  0
  9 27  1  0
 27 28  2  0
 28  6  1  0
M  END
> <Smiles>
CCN(CC)c1ccc(C2CC(c3cc(OC)c(OC)c(OC)c3)=NN2)cc1

> <ID>
CHEMBL1224179

> <standard_value>
316.23

> <IC50_uM>
0.31623

> <Activity>
Yes

> <pIC50>
6.499996932

> <BCI>
1

$$$$

  SciTegic03012415362D

 27 29  0  0  0  0            999 V2000
    3.8983   -0.7459    0.0000 C   0  0
    2.6003   -1.4977    0.0000 O   0  0
    1.2990   -0.7500    0.0000 C   0  0
    1.2990    0.7500    0.0000 C   0  0
    0.0000    1.5000    0.0000 C   0  0
    0.0000    3.0008    0.0000 C   0  0  3  0  0  0
   -1.2149    3.8587    0.0000 C   0  0
   -0.7536    5.2860    0.0000 C   0  0
   -1.6377    6.4987    0.0000 C   0  0
   -3.1320    6.4515    0.0000 C   0  0
   -3.9219    7.7267    0.0000 C   0  0
   -3.2125    9.0483    0.0000 C   0  0
   -1.7132    9.0948    0.0000 C   0  0
   -1.0038   10.4165    0.0000 Br  0  0
   -0.9233    7.8196    0.0000 C   0  0
    0.7463    5.2884    0.0000 N   0  0
    1.2121    3.8625    0.0000 N   0  0
    2.6351    3.3939    0.0000 C   0  0
    2.9406    1.9253    0.0000 C   0  0
    3.7545    4.3923    0.0000 O   0  0
   -1.2990    0.7500    0.0000 C   0  0
   -1.2990   -0.7500    0.0000 C   0  0
   -2.6003   -1.4978    0.0000 O   0  0
   -3.8983   -0.7459    0.0000 C   0  0
    0.0000   -1.5000    0.0000 C   0  0
    0.0031   -3.0008    0.0000 O   0  0
    1.3032   -3.7490    0.0000 C   0  0
  1  2  1  0
  2  3  1  0
  3  4  2  0
  4  5  1  0
  6  5  1  4
  6  7  1  0
  7  8  1  0
  8  9  1  0
  9 10  2  0
 10 11  1  0
 11 12  2  0
 12 13  1  0
 13 14  1  0
 13 15  2  0
 15  9  1  0
  8 16  2  0
 16 17  1  0
 17  6  1  0
 17 18  1  0
 18 19  1  0
 18 20  2  0
  5 21  2  0
 21 22  1  0
 22 23  1  0
 23 24  1  0
 22 25  2  0
 25  3  1  0
 25 26  1  0
 26 27  1  0
M  END
> <Smiles>
COc1cc(C2CC(c3cccc(Br)c3)=NN2C(C)=O)cc(OC)c1OC

> <ID>
CHEMBL1224507

> <standard_value>
316.23

> <IC50_uM>
0.31623

> <Activity>
Yes

> <pIC50>
6.499996932

> <BCI>
1

$$$$

  SciTegic03012415362D

 31 33  0  0  0  0            999 V2000
    3.8926   -3.7566    0.0000 C   0  0
    2.5951   -3.0039    0.0000 C   0  0
    2.5973   -1.5031    0.0000 N   0  0
    3.8999   -0.7576    0.0000 C   0  0
    5.1965   -1.5117    0.0000 C   0  0
    1.2990   -0.7500    0.0000 C   0  0
    1.2990    0.7500    0.0000 C   0  0
    0.0000    1.5000    0.0000 C   0  0
   -1.2990    0.7500    0.0000 C   0  0
   -2.5987    1.5004    0.0000 C   0  0
   -2.7390    2.9810    0.0000 N   0  0
   -4.2067    3.2905    0.0000 N   0  0
   -4.8154    4.6596    0.0000 C   0  0
   -6.3072    4.8166    0.0000 C   0  0
   -3.9339    5.8732    0.0000 O   0  0
   -4.9546    1.9903    0.0000 C   0  0  3  0  0  0
   -6.4469    1.8311    0.0000 C   0  0
   -7.4153    2.9701    0.0000 C   0  0
   -8.8906    2.6991    0.0000 C   0  0
   -9.8611    3.8440    0.0000 O   0  0
   -9.3561    5.2564    0.0000 C   0  0
   -9.3937    1.2860    0.0000 C   0  0
  -10.8692    1.0118    0.0000 O   0  0
  -11.3703   -0.4020    0.0000 C   0  0
   -8.4213    0.1438    0.0000 C   0  0
   -8.9217   -1.2712    0.0000 O   0  0
   -7.9478   -2.4120    0.0000 C   0  0
   -6.9460    0.4147    0.0000 C   0  0
   -3.9492    0.8772    0.0000 C   0  0
   -1.2990   -0.7500    0.0000 C   0  0
    0.0000   -1.5000    0.0000 C   0  0
  1  2  1  0
  2  3  1  0
  3  4  1  0
  4  5  1  0
  3  6  1  0
  6  7  2  0
  7  8  1  0
  8  9  2  0
  9 10  1  0
 10 11  2  0
 11 12  1  0
 12 13  1  0
 13 14  1  0
 13 15  2  0
 12 16  1  0
 16 17  1  4
 17 18  2  0
 18 19  1  0
 19 20  1  0
 20 21  1  0
 19 22  2  0
 22 23  1  0
 23 24  1  0
 22 25  1  0
 25 26  1  0
 26 27  1  0
 25 28  2  0
 28 17  1  0
 16 29  1  0
 29 10  1  0
  9 30  1  0
 30 31  2  0
 31  6  1  0
M  END
> <Smiles>
CCN(CC)c1ccc(C2=NN(C(C)=O)C(c3cc(OC)c(OC)c(OC)c3)C2)cc1

> <ID>
CHEMBL1224579

> <standard_value>
316.23

> <IC50_uM>
0.31623

> <Activity>
Yes

> <pIC50>
6.499996932

> <BCI>
1

$$$$

  SciTegic03012415362D

 35 40  0  0  0  0            999 V2000
   -1.9666   -9.6054    0.0000 C   0  0
   -0.4666   -9.6111    0.0000 S   0  0
    0.2780  -10.9132    0.0000 O   0  0
   -1.2218  -10.9071    0.0000 O   0  0
    0.2883   -8.3139    0.0000 N   0  0
    1.7883   -8.3192    0.0000 C   0  0
    2.5428   -7.0227    0.0000 C   0  0
    1.7974   -5.7210    0.0000 N   0  0
    2.5497   -4.4224    0.0000 C   0  0
    1.8032   -3.1233    0.0000 C   0  0
    2.4133   -1.7530    0.0000 C   0  0
    1.2990   -0.7500    0.0000 C   0  0
    1.2990    0.7500    0.0000 N   0  0
    0.0000    1.5000    0.0000 C   0  0
    0.0000    3.0008    0.0000 C   0  0
   -1.3002    3.7488    0.0000 C   0  0
   -1.3026    5.2488    0.0000 C   0  0
   -0.0048    6.0009    0.0000 C   0  0
    1.2954    5.2529    0.0000 C   0  0
    2.7204    5.7187    0.0000 N   0  0
    3.6041    4.5066    0.0000 N   0  0
    2.7243    3.2917    0.0000 C   0  0
    1.2978    3.7529    0.0000 C   0  0
   -1.2990    0.7500    0.0000 N   0  0
   -1.2990   -0.7500    0.0000 C   0  0
   -2.5987   -1.5004    0.0000 N   0  0
   -3.8991   -0.7525    0.0000 C   0  0
   -5.1969   -1.5046    0.0000 C   0  0
   -5.1945   -3.0046    0.0000 O   0  0
   -3.8943   -3.7525    0.0000 C   0  0
   -2.5964   -3.0004    0.0000 C   0  0
    0.0000   -1.5000    0.0000 C   0  0
    0.3114   -2.9665    0.0000 S   0  0
    0.2973   -5.7159    0.0000 C   0  0
   -0.4572   -7.0123    0.0000 C   0  0
  1  2  1  0
  2  3  2  0
  2  4  2  0
  2  5  1  0
  5  6  1  0
  6  7  1  0
  7  8  1  0
  8  9  1  0
  9 10  1  0
 10 11  2  0
 11 12  1  0
 12 13  2  0
 13 14  1  0
 14 15  1  0
 15 16  2  0
 16 17  1  0
 17 18  2  0
 18 19  1  0
 19 20  1  0
 20 21  1  0
 21 22  2  0
 22 23  1  0
 23 15  1  0
 23 19  2  0
 14 24  2  0
 24 25  1  0
 25 26  1  0
 26 27  1  0
 27 28  1  0
 28 29  1  0
 29 30  1  0
 30 31  1  0
 31 26  1  0
 25 32  2  0
 32 12  1  0
 32 33  1  0
 33 10  1  0
  8 34  1  0
 34 35  1  0
 35  5  1  0
M  END
> <Smiles>
CS(=O)(=O)N1CCN(Cc2cc3nc(-c4cccc5[nH]ncc45)nc(N4CCOCC4)c3s2)CC1

> <ID>
CHEMBL521851

> <standard_value>
316.23

> <IC50_uM>
0.31623

> <Activity>
Yes

> <pIC50>
6.499996932

> <BCI>
1

$$$$

  SciTegic03012415362D

 36 41  0  0  0  0            999 V2000
    6.4964    0.7591    0.0000 O   0  0
    6.4990   -0.7409    0.0000 C   0  0
    5.2003   -1.4932    0.0000 C   0  0
    3.8990   -0.7455    0.0000 C   0  0
    2.6003   -1.4977    0.0000 C   0  0
    1.2990   -0.7500    0.0000 N   0  0
    1.2990    0.7500    0.0000 C   0  0
    2.5981    1.5000    0.0000 O   0  0
    0.0000    1.5000    0.0000 C   0  0
   -0.3115    2.9665    0.0000 S   0  0
   -1.8032    3.1233    0.0000 C   0  0
   -2.6838    4.3363    0.0000 N   0  0
   -4.1756    4.1795    0.0000 C   0  0
   -4.7857    2.8092    0.0000 C   0  0
   -3.9040    1.5956    0.0000 C   0  0
   -2.4133    1.7530    0.0000 C   0  0
   -1.2990    0.7500    0.0000 C   0  0
   -1.2990   -0.7500    0.0000 N   0  0
   -2.4133   -1.7530    0.0000 N   0  0
   -1.8032   -3.1233    0.0000 N   0  0
   -0.3114   -2.9665    0.0000 C   0  0
    0.6929   -4.0817    0.0000 C   0  0
    0.3385   -5.5341    0.0000 C   0  0
    1.4233   -6.5700    0.0000 C   0  0
    2.8629   -6.1484    0.0000 C   0  0
    3.2176   -4.6910    0.0000 C   0  0
    2.1327   -3.6551    0.0000 C   0  0
    0.0000   -1.5000    0.0000 C   0  0
    7.8003   -1.4887    0.0000 N   0  0
    9.0990   -0.7364    0.0000 C   0  0
   10.4003   -1.4841    0.0000 C   0  0
   11.6990   -0.7319    0.0000 C   0  0
   13.0525   -1.3482    0.0000 C   0  0
   14.0523   -0.2300    0.0000 N   0  0
   13.2978    1.0664    0.0000 C   0  0
   11.8317    0.7495    0.0000 N   0  0
  1  2  2  0
  2  3  1  0
  3  4  1  0
  4  5  1  0
  5  6  1  0
  6  7  1  0
  7  8  2  0
  7  9  1  0
  9 10  1  0
 10 11  1  0
 11 12  2  0
 12 13  1  0
 13 14  2  0
 14 15  1  0
 15 16  2  0
 16 11  1  0
 16 17  1  0
 17  9  2  0
 17 18  1  0
 18 19  1  0
 19 20  2  0
 20 21  1  0
 21 22  1  0
 22 23  2  0
 23 24  1  0
 24 25  2  0
 25 26  1  0
 26 27  2  0
 27 22  1  0
 21 28  2  0
 28  6  1  0
 28 18  1  0
  2 29  1  0
 29 30  1  0
 30 31  1  0
 31 32  1  0
 32 33  2  0
 33 34  1  0
 34 35  1  0
 35 36  2  0
 36 32  1  0
M  END
> <Smiles>
O=C(CCCn1c(=O)c2sc3ncccc3c2n2nnc(-c3ccccc3)c12)NCCc1c[nH]cn1

> <ID>
CHEMBL2348308

> <standard_value>
316.23

> <IC50_uM>
0.31623

> <Activity>
Yes

> <pIC50>
6.499996932

> <BCI>
1

$$$$

  SciTegic03012415362D

 22 25  0  0  1  0            999 V2000
    3.8983   -0.7459    0.0000 C   0  0
    2.6003   -1.4977    0.0000 O   0  0
    1.2990   -0.7500    0.0000 C   0  0
    1.2990    0.7500    0.0000 C   0  0
    0.0000    1.5000    0.0000 C   0  0
   -1.2990    0.7500    0.0000 C   0  0
   -1.2990   -0.7500    0.0000 C   0  0
    0.0000   -1.5000    0.0000 C   0  0
    0.0000   -3.0000    0.0000 O   0  0
   -2.5981    1.5000    0.0000 C   0  0
   -2.5981    3.0000    0.0000 C   0  0
   -1.2991    3.7500    0.0000 C   0  0  2  0  0  0
    0.0000    3.0000    0.0000 C   0  0  2  0  0  0
    1.2990    3.7500    0.0000 C   0  0
    1.2990    5.2500    0.0000 C   0  0
    0.0000    6.0000    0.0000 C   0  0  2  0  0  0
    1.2211    6.8711    0.0000 C   0  0
   -0.2851    7.4666    0.0000 C   0  0  1  0  0  0
    0.7318    8.5693    0.0000 O   0  0
   -1.7759    7.6329    0.0000 C   0  0
   -2.3947    6.2665    0.0000 C   0  0
   -1.2991    5.2500    0.0000 C   0  0  1  0  0  0
  1  2  1  0
  2  3  1  0
  3  4  2  0
  4  5  1  0
  5  6  2  0
  6  7  1  0
  7  8  2  0
  8  3  1  0
  8  9  1  0
  6 10  1  0
 10 11  1  0
 12 11  1  1
 12 13  1  0
 13  5  1  0
 13 14  1  6
 14 15  1  0
 15 16  1  0
 16 17  1  6
 16 18  1  0
 18 19  1  6
 18 20  1  0
 20 21  1  0
 22 21  1  6
 22 12  1  0
 22 16  1  0
M  END
> <Smiles>
COc1cc2c(cc1O)CC[C@@H]1[C@@H]2CC[C@]2(C)[C@@H](O)CC[C@@H]12

> <ID>
CHEMBL299613

> <standard_value>
320

> <IC50_uM>
0.32

> <Activity>
Yes

> <pIC50>
6.494850022

> <BCI>
1

$$$$

  SciTegic03012415362D

 28 31  0  0  0  0            999 V2000
    3.8983   -0.7459    0.0000 C   0  0
    2.6003   -1.4977    0.0000 O   0  0
    1.2990   -0.7500    0.0000 C   0  0
    1.2990    0.7500    0.0000 C   0  0
    0.0000    1.5000    0.0000 C   0  0
    0.0000    3.0000    0.0000 O   0  0
   -1.2991    3.7500    0.0000 C   0  0
   -2.5981    3.0000    0.0000 C   0  0
   -3.8978    3.7504    0.0000 C   0  0
   -5.1957    2.9983    0.0000 C   0  0
   -6.4960    3.7463    0.0000 C   0  0
   -7.7930    2.9911    0.0000 O   0  0
   -7.7885    1.4911    0.0000 C   0  0
   -6.4983    5.2463    0.0000 C   0  0
   -5.2005    5.9983    0.0000 C   0  0
   -3.9003    5.2504    0.0000 C   0  0
   -2.6002    6.0003    0.0000 O   0  0
   -1.3010    5.2506    0.0000 C   0  0
   -5.5143    7.4643    0.0000 O   0  0
   -7.0063    7.6188    0.0000 C   0  0
   -7.6142    6.2475    0.0000 O   0  0
   -2.5981    1.5000    0.0000 C   0  0
   -3.8971    0.7500    0.0000 O   0  0
   -1.2990    0.7500    0.0000 C   0  0
   -1.2990   -0.7500    0.0000 C   0  0
    0.0000   -1.5000    0.0000 C   0  0
   -0.0031   -3.0008    0.0000 O   0  0
   -1.3032   -3.7490    0.0000 C   0  0
  1  2  1  0
  2  3  1  0
  3  4  2  0
  4  5  1  0
  5  6  1  0
  6  7  1  0
  7  8  2  0
  8  9  1  0
  9 10  2  0
 10 11  1  0
 11 12  1  0
 12 13  1  0
 11 14  2  0
 14 15  1  0
 15 16  2  0
 16  9  1  0
 16 17  1  0
 17 18  1  0
 15 19  1  0
 19 20  1  0
 20 21  1  0
 21 14  1  0
  8 22  1  0
 22 23  2  0
 22 24  1  0
 24  5  2  0
 24 25  1  0
 25 26  2  0
 26  3  1  0
 26 27  1  0
 27 28  1  0
M  END
> <Smiles>
COc1cc2occ(-c3cc(OC)c4c(c3OC)OCO4)c(=O)c2cc1OC

> <ID>
CHEMBL234716

> <standard_value>
320

> <IC50_uM>
0.32

> <Activity>
Yes

> <pIC50>
6.494850022

> <BCI>
1

$$$$

  SciTegic03012415362D

 24 27  0  0  0  0            999 V2000
    7.7988   -1.4819    0.0000 C   0  0
    6.4972   -0.7364    0.0000 C   0  0
    5.2007   -1.4909    0.0000 C   0  0
    3.8990   -0.7455    0.0000 C   0  0
    2.6003   -1.4977    0.0000 C   0  0
    1.2990   -0.7500    0.0000 C   0  0
    1.2990    0.7500    0.0000 C   0  0
    0.0000    1.5000    0.0000 C   0  0
   -1.2990    0.7500    0.0000 C   0  0
   -1.2990   -0.7500    0.0000 C   0  0
   -2.7248   -1.2135    0.0000 N   0  0
   -3.6065    0.0000    0.0000 C   0  0
   -5.0972    0.1560    0.0000 C   0  0
   -5.7073    1.5264    0.0000 C   0  0
   -4.8257    2.7399    0.0000 C   0  0
   -3.3339    2.5831    0.0000 C   0  0
   -2.7248    1.2135    0.0000 C   0  0
    0.0000   -1.5000    0.0000 C   0  0
    0.0000   -3.0000    0.0000 O   0  0
    3.8939    0.7546    0.0000 C   0  0
    5.1903    1.5091    0.0000 C   0  0
    5.1852    3.0091    0.0000 C   0  0
    6.4920    0.7636    0.0000 C   0  0
    7.7884    1.5181    0.0000 O   0  0
  1  2  1  0
  2  3  2  0
  3  4  1  0
  4  5  1  0
  5  6  2  0
  6  7  1  0
  7  8  1  0
  8  9  1  0
  9 10  2  0
 10 11  1  0
 11 12  1  0
 12 13  2  0
 13 14  1  0
 14 15  2  0
 15 16  1  0
 16 17  2  0
 17  9  1  0
 17 12  1  0
 10 18  1  0
 18  6  1  0
 18 19  2  0
  4 20  2  0
 20 21  1  0
 21 22  1  0
 21 23  2  0
 23  2  1  0
 23 24  1  0
M  END
> <Smiles>
Cc1cc(/C=C2\CCc3c([nH]c4ccccc34)C2=O)cc(C)c1O

> <ID>
CHEMBL3220352

> <standard_value>
320

> <IC50_uM>
0.32

> <Activity>
Yes

> <pIC50>
6.494850022

> <BCI>
1

$$$$

  SciTegic03012415362D

 28 31  0  0  0  0            999 V2000
    5.1873   -7.5109    0.0000 C   0  0
    5.1894   -6.0109    0.0000 C   0  0
    3.8912   -5.2578    0.0000 N   0  0
    3.8933   -3.7570    0.0000 C   0  0
    2.5951   -3.0039    0.0000 C   0  0
    2.5973   -1.5031    0.0000 C   0  0
    1.2990   -0.7500    0.0000 N   0  0
    1.2990    0.7500    0.0000 C   0  0
    0.0000    1.5000    0.0000 C   0  0
   -1.2990    0.7500    0.0000 C   0  0
   -2.5981    1.5000    0.0000 C   0  0
   -3.8971    0.7500    0.0000 C   0  0
   -3.8971   -0.7500    0.0000 C   0  0
   -5.1961   -1.5000    0.0000 F   0  0
   -2.5981   -1.5000    0.0000 C   0  0
   -1.2990   -0.7500    0.0000 C   0  0
    0.0000   -1.5000    0.0000 C   0  0
    0.0000   -3.0000    0.0000 O   0  0
    0.3114    2.9665    0.0000 C   0  0
   -0.6924    4.0811    0.0000 O   0  0
    1.8032    3.1233    0.0000 C   0  0
    2.6837    4.3363    0.0000 C   0  0
    4.1755    4.1795    0.0000 C   0  0
    5.0602    5.3919    0.0000 O   0  0
    6.5517    5.2330    0.0000 C   0  0
    4.7856    2.8092    0.0000 C   0  0
    3.9040    1.5957    0.0000 N   0  0
    2.4133    1.7530    0.0000 C   0  0
  1  2  1  0
  2  3  1  0
  3  4  1  0
  4  5  1  0
  5  6  1  0
  6  7  1  0
  7  8  1  0
  8  9  2  0
  9 10  1  0
 10 11  2  0
 11 12  1  0
 12 13  2  0
 13 14  1  0
 13 15  1  0
 15 16  2  0
 16 10  1  0
 16 17  1  0
 17  7  1  0
 17 18  2  0
  9 19  1  0
 19 20  2  0
 19 21  1  0
 21 22  2  0
 22 23  1  0
 23 24  1  0
 24 25  1  0
 23 26  2  0
 26 27  1  0
 27 28  2  0
 28 21  1  0
 28  8  1  0
M  END
> <Smiles>
CCNCCCn1c2c(c3ccc(F)cc3c1=O)C(=O)c1cc(OC)cnc1-2

> <ID>
CHEMBL4076362

> <standard_value>
320

> <IC50_uM>
0.32

> <Activity>
Yes

> <pIC50>
6.494850022

> <BCI>
1

$$$$

  SciTegic03012415362D

 27 30  0  0  0  0            999 V2000
    1.8102   -8.3178    0.0000 C   0  0
    2.5582   -7.0176    0.0000 C   0  0
    4.0591   -7.0144    0.0000 C   0  0
    4.8091   -8.3134    0.0000 C   0  0
    6.3091   -8.3134    0.0000 C   0  0
    7.0591   -7.0143    0.0000 C   0  0
    6.3090   -5.7153    0.0000 C   0  0
    7.0590   -4.4163    0.0000 C   0  0
    4.8090   -5.7153    0.0000 C   0  0
    4.0559   -4.4171    0.0000 N   0  0
    2.5551   -4.4192    0.0000 C   0  0
    1.8073   -5.7196    0.0000 O   0  0
    1.8032   -3.1233    0.0000 C   0  0
    2.4133   -1.7530    0.0000 S   0  0
    1.2990   -0.7500    0.0000 C   0  0
    1.2990    0.7500    0.0000 N   0  0
    0.0000    1.5000    0.0000 C   0  0
   -1.2990    0.7500    0.0000 C   0  0
   -1.2990   -0.7500    0.0000 C   0  0
    0.0000   -1.5000    0.0000 C   0  0
    0.3114   -2.9665    0.0000 C   0  0
   -0.6923   -4.0811    0.0000 N   0  0
   -2.5981    1.5000    0.0000 C   0  0
   -3.8971    0.7500    0.0000 O   0  0
   -2.5981    3.0000    0.0000 C   0  0
   -1.2991    3.7500    0.0000 C   0  0
    0.0000    3.0000    0.0000 C   0  0
  1  2  1  0
  2  3  1  0
  3  4  2  0
  4  5  1  0
  5  6  2  0
  6  7  1  0
  7  8  1  0
  7  9  2  0
  9  3  1  0
  9 10  1  0
 10 11  1  0
 11 12  2  0
 11 13  1  0
 13 14  1  0
 14 15  1  0
 15 16  2  0
 16 17  1  0
 17 18  2  0
 18 19  1  0
 19 20  2  0
 20 15  1  0
 20 21  1  0
 21 13  2  0
 21 22  1  0
 18 23  1  0
 23 24  2  0
 23 25  1  0
 25 26  1  0
 26 27  1  0
 27 17  1  0
M  END
> <Smiles>
CCc1cccc(C)c1NC(=O)c1sc2nc3c(cc2c1N)C(=O)CCC3

> <ID>
CHEMBL4784874

> <standard_value>
320

> <IC50_uM>
0.32

> <Activity>
Yes

> <pIC50>
6.494850022

> <BCI>
1

$$$$

  SciTegic03012415362D

 31 34  0  0  1  0            999 V2000
    1.8479    4.6057    0.0000 C   0  0
    2.3109    3.1790    0.0000 C   0  0
    3.7375    2.7155    0.0000 C   0  0
    4.9510    3.5971    0.0000 O   0  0
    3.7375    1.2155    0.0000 O   0  0
    2.3083    0.7500    0.0000 C   0  0  1  0  0  0
    1.4266    1.9635    0.0000 C   0  0  1  0  0  0
    0.0000    2.4271    0.0000 C   0  0
   -1.4266    1.9635    0.0000 C   0  0
   -2.3083    0.7500    0.0000 C   0  0
   -3.7419    1.2126    0.0000 C   0  0
   -4.8559    0.2068    0.0000 O   0  0
   -6.2842    0.6677    0.0000 C   0  0
   -6.5985    2.1344    0.0000 O   0  0
   -7.3981   -0.3381    0.0000 N   0  0
   -8.8264    0.1228    0.0000 C   0  0
   -9.9403   -0.8829    0.0000 C   0  0
  -11.3686   -0.4244    0.0000 C   0  0
  -12.4798   -1.4319    0.0000 C   0  0
  -12.1630   -2.8980    0.0000 C   0  0
  -13.2728   -3.9084    0.0000 O   0  0
  -12.9538   -5.3741    0.0000 C   0  0
  -10.7348   -3.3567    0.0000 C   0  0
   -9.6235   -2.3492    0.0000 C   0  0
   -2.3083   -0.7500    0.0000 C   0  0
   -1.4266   -1.9635    0.0000 C   0  0
    0.0000   -2.4271    0.0000 C   0  0
    1.4266   -1.9635    0.0000 C   0  0  1  0  0  0
    2.8116   -1.3875    0.0000 C   0  0
    2.8750   -2.1886    0.0000 O   0  0
    2.3083   -0.7500    0.0000 C   0  0  1  0  0  0
  1  2  2  0
  2  3  1  0
  3  4  2  0
  3  5  1  0
  6  5  1  6
  6  7  1  0
  7  2  1  0
  7  8  1  1
  8  9  1  0
  9 10  1  0
 10 11  1  0
 11 12  1  0
 12 13  1  0
 13 14  2  0
 13 15  1  0
 15 16  1  0
 16 17  1  0
 17 18  2  0
 18 19  1  0
 19 20  2  0
 20 21  1  0
 21 22  1  0
 20 23  1  0
 23 24  2  0
 24 17  1  0
 10 25  2  0
 25 26  1  0
 26 27  1  0
 27 28  1  0
 28 29  1  1
 28 30  1  0
 31 30  1  6
 31  6  1  0
 31 28  1  0
M  END
> <Smiles>
C=C1C(=O)O[C@H]2[C@H]1CC/C(COC(=O)NCc1ccc(OC)cc1)=C\CC[C@@]1(C)O[C@@H]21

> <ID>
CHEMBL5083022

> <standard_value>
320

> <IC50_uM>
0.32

> <Activity>
Yes

> <pIC50>
6.494850022

> <BCI>
1

$$$$

  SciTegic03012415362D

 26 28  0  0  0  0            999 V2000
    3.8983   -0.7459    0.0000 C   0  0
    2.6003   -1.4977    0.0000 O   0  0
    1.2990   -0.7500    0.0000 C   0  0
    1.2990    0.7500    0.0000 C   0  0
    0.0000    1.5000    0.0000 C   0  0
    0.0000    3.0008    0.0000 C   0  0
   -1.2149    3.8587    0.0000 N   0  0
   -0.7536    5.2860    0.0000 N   0  0
    0.7463    5.2884    0.0000 C   0  0
    1.2121    3.8625    0.0000 N   0  0
    2.6374    3.3926    0.0000 C   0  0
    3.0562    1.9577    0.0000 C   0  0
    4.5135    1.6025    0.0000 C   0  0
    5.5498    2.6871    0.0000 C   0  0
    7.0087    2.3348    0.0000 N   0  0
    8.0433    3.4208    0.0000 C   0  0
    7.4323    0.8958    0.0000 C   0  0
    5.1286    4.1268    0.0000 C   0  0
    3.6713    4.4819    0.0000 C   0  0
   -1.2990    0.7500    0.0000 C   0  0
   -1.2990   -0.7500    0.0000 C   0  0
   -2.6003   -1.4978    0.0000 O   0  0
   -3.8983   -0.7459    0.0000 C   0  0
    0.0000   -1.5000    0.0000 C   0  0
    0.0031   -3.0008    0.0000 O   0  0
    1.3032   -3.7490    0.0000 C   0  0
  1  2  1  0
  2  3  1  0
  3  4  2  0
  4  5  1  0
  5  6  1  0
  6  7  2  0
  7  8  1  0
  8  9  2  0
  9 10  1  0
 10  6  1  0
 10 11  1  0
 11 12  2  0
 12 13  1  0
 13 14  2  0
 14 15  1  0
 15 16  1  0
 15 17  1  0
 14 18  1  0
 18 19  2  0
 19 11  1  0
  5 20  2  0
 20 21  1  0
 21 22  1  0
 22 23  1  0
 21 24  2  0
 24  3  1  0
 24 25  1  0
 25 26  1  0
M  END
> <Smiles>
COc1cc(-c2nncn2-c2ccc(N(C)C)cc2)cc(OC)c1OC

> <ID>
CHEMBL221628

> <standard_value>
323.59

> <IC50_uM>
0.32359

> <Activity>
Yes

> <pIC50>
6.490004908

> <BCI>
1

$$$$

  SciTegic03012415362D

 59 66  0  0  0  0            999 V2000
    3.8805   -1.4410    0.0000 O   0  0
    2.4133   -1.7530    0.0000 C   0  0
    1.2990   -0.7500    0.0000 C   0  0
    1.2990    0.7500    0.0000 C   0  0
    0.0000    1.5000    0.0000 C   0  0
   -1.2990    0.7500    0.0000 C   0  0
   -1.2990   -0.7500    0.0000 C   0  0
    0.0000   -1.5000    0.0000 C   0  0
    0.3114   -2.9665    0.0000 C   0  0
    1.8032   -3.1233    0.0000 C   0  0
    2.4135   -4.4923    0.0000 C   0  0
    3.9053   -4.6492    0.0000 C   0  0
    4.5154   -6.0195    0.0000 C   0  0
    6.0083   -6.1733    0.0000 N   0  3
    6.8882   -4.9585    0.0000 O   0  0
    6.6208   -7.5425    0.0000 O   0  5
    3.6337   -7.2330    0.0000 C   0  0
    4.2413   -8.6053    0.0000 N   0  3
    3.3579   -9.8176    0.0000 O   0  0
    5.7328   -8.7647    0.0000 O   0  5
    2.1419   -7.0762    0.0000 C   0  0
    1.5318   -5.7059    0.0000 C   0  0
    0.0400   -5.5491    0.0000 C   0  0
   -0.8417   -6.7626    0.0000 O   0  0
   -0.5701   -4.1788    0.0000 N   0  0
   -2.0630   -4.0243    0.0000 C   0  0
   -2.9439   -5.2394    0.0000 C   0  0
   -4.4368   -5.0850    0.0000 N   0  0
   -5.3177   -6.3001    0.0000 C   0  0
   -6.8105   -6.1457    0.0000 C   0  0
   -7.6915   -7.3608    0.0000 C   0  0
   -9.1843   -7.2064    0.0000 N   0  0
  -10.0653   -8.4214    0.0000 C   0  0
  -11.5581   -8.2670    0.0000 C   0  0
  -12.4391   -9.4821    0.0000 N   0  0
  -13.9313   -9.3300    0.0000 C   0  0
  -14.8093  -10.5462    0.0000 C   0  0
  -14.1950  -11.9146    0.0000 C   0  0
  -15.0730  -13.1308    0.0000 C   0  0
  -14.4587  -14.4993    0.0000 C   0  0
  -15.3397  -15.7144    0.0000 N   0  3
  -16.8317  -15.5600    0.0000 O   0  0
  -14.7278  -17.0839    0.0000 O   0  5
  -12.9665  -14.6515    0.0000 C   0  0
  -12.3490  -16.0195    0.0000 N   0  3
  -10.8566  -16.1696    0.0000 O   0  0
  -13.2249  -17.2372    0.0000 O   0  5
  -12.0885  -13.4353    0.0000 C   0  0
  -12.7028  -12.0669    0.0000 C   0  0
  -11.8248  -10.8507    0.0000 C   0  0
  -10.3326  -11.0029    0.0000 O   0  0
  -16.2366  -10.0875    0.0000 C   0  0
  -17.4474  -10.9730    0.0000 O   0  0
  -16.2412   -8.5875    0.0000 C   0  0
  -17.3586   -7.5884    0.0000 C   0  0
  -17.0512   -6.1202    0.0000 C   0  0
  -15.6260   -5.6524    0.0000 C   0  0
  -14.5083   -6.6527    0.0000 C   0  0
  -14.8160   -8.1196    0.0000 C   0  0
  1  2  2  0
  2  3  1  0
  3  4  2  0
  4  5  1  0
  5  6  2  0
  6  7  1  0
  7  8  2  0
  8  3  1  0
  8  9  1  0
  9 10  2  0
 10  2  1  0
 10 11  1  0
 11 12  2  0
 12 13  1  0
 13 14  1  0
 14 15  2  0
 14 16  1  0
 13 17  2  0
 17 18  1  0
 18 19  2  0
 18 20  1  0
 17 21  1  0
 21 22  2  0
 22 11  1  0
 22 23  1  0
 23 24  2  0
 23 25  1  0
 25  9  1  0
 25 26  1  0
 26 27  1  0
 27 28  1  0
 28 29  1  0
 29 30  1  0
 30 31  1  0
 31 32  1  0
 32 33  1  0
 33 34  1  0
 34 35  1  0
 35 36  1  0
 36 37  2  0
 37 38  1  0
 38 39  2  0
 39 40  1  0
 40 41  1  0
 41 42  2  0
 41 43  1  0
 40 44  2  0
 44 45  1  0
 45 46  2  0
 45 47  1  0
 44 48  1  0
 48 49  2  0
 49 38  1  0
 49 50  1  0
 50 35  1  0
 50 51  2  0
 37 52  1  0
 52 53  2  0
 52 54  1  0
 54 55  2  0
 55 56  1  0
 56 57  2  0
 57 58  1  0
 58 59  2  0
 59 54  1  0
 59 36  1  0
M  CHG  8  14   1  16  -1  18   1  20  -1  41   1  43  -1  45   1  47  -1
M  END
> <Smiles>
O=C1c2ccccc2-c2c1c1cc([N+](=O)[O-])c([N+](=O)[O-])cc1c(=O)n2CCNCCCNCCn1c2c(c3cc([N+](=O)[O-])c([N+](=O)[O-])cc3c1=O)C(=O)c1ccccc1-2

> <ID>
CHEMBL379113

> <standard_value>
324

> <IC50_uM>
0.324

> <Activity>
Yes

> <pIC50>
6.48945499

> <BCI>
1

$$$$

  SciTegic03012415362D

 28 30  0  0  0  0            999 V2000
    6.4206    2.2306    0.0000 C   0  0
    4.9879    2.6747    0.0000 O   0  0
    3.8856    1.6562    0.0000 C   0  0
    4.2194    0.1938    0.0000 C   0  0
    3.1198   -0.8265    0.0000 C   0  0
    1.6852   -0.3846    0.0000 C   0  0
    1.3514    1.0778    0.0000 C   0  0
    2.4522    2.0983    0.0000 C   0  0
    2.1219    3.5623    0.0000 O   0  0
    3.2239    4.5811    0.0000 P   0  0
    2.8937    6.0443    0.0000 O   0  0
    4.6563    4.1359    0.0000 O   0  5
    4.3258    5.5988    0.0000 O   0  5
    0.0000    1.7286    0.0000 C   0  0
   -1.3515    1.0777    0.0000 O   0  0
   -1.6852   -0.3847    0.0000 C   0  0
   -0.7500   -1.5574    0.0000 C   0  0
   -1.5000   -2.8577    0.0000 C   0  0
   -0.7500   -4.1567    0.0000 C   0  0
   -1.5031   -5.4549    0.0000 O   0  0
   -3.0031   -5.4528    0.0000 C   0  0
    0.7500   -4.1567    0.0000 C   0  0
    1.5031   -5.4549    0.0000 O   0  0
    3.0031   -5.4528    0.0000 C   0  0
    1.5000   -2.8577    0.0000 C   0  0
    3.0008   -2.8614    0.0000 O   0  0
    3.7485   -4.1618    0.0000 C   0  0
    0.7500   -1.5574    0.0000 C   0  0  3  0  0  0
  1  2  1  0
  2  3  1  0
  3  4  2  0
  4  5  1  0
  5  6  2  0
  6  7  1  0
  7  8  2  0
  8  3  1  0
  8  9  1  0
  9 10  1  0
 10 11  2  0
 10 12  1  0
 10 13  1  0
  7 14  1  0
 14 15  1  0
 15 16  1  0
 16 17  1  0
 17 18  2  0
 18 19  1  0
 19 20  1  0
 20 21  1  0
 19 22  2  0
 22 23  1  0
 23 24  1  0
 22 25  1  0
 25 26  1  0
 26 27  1  0
 25 28  2  0
 28 17  1  4
 28  6  1  0
M  CHG  2  12  -1  13  -1
M  END
> <Smiles>
COc1ccc2c(c1OP(=O)([O-])[O-])COCc1cc(OC)c(OC)c(OC)c1-2.[Na+].[Na+]

> <ID>
CHEMBL4104917

> <standard_value>
330

> <IC50_uM>
0.33

> <Activity>
Yes

> <pIC50>
6.48148606

> <BCI>
1

> <RemovedSalts>
Na+
Na+

$$$$

  SciTegic03012415362D

 34 39  0  0  0  0            999 V2000
    3.8983   -0.7459    0.0000 C   0  0
    2.6003   -1.4977    0.0000 O   0  0
    1.2990   -0.7500    0.0000 C   0  0
    1.2990    0.7500    0.0000 C   0  0
    0.0000    1.5000    0.0000 C   0  0
    0.0000    3.0000    0.0000 C   0  0
    1.2990    3.7500    0.0000 O   0  0
   -1.2991    3.7500    0.0000 N   0  0
   -1.2960    5.2508    0.0000 C   0  0
    0.0048    5.9994    0.0000 C   0  0
    0.0079    7.5002    0.0000 C   0  0
    1.3087    8.2488    0.0000 N   0  0
    1.3140    9.7488    0.0000 C   0  0
    2.6156   10.4943    0.0000 C   0  0
    3.9120    9.7398    0.0000 O   0  0
    3.9069    8.2399    0.0000 C   0  0
    2.6053    7.4943    0.0000 C   0  0
   -2.5981    3.0000    0.0000 C   0  0
   -2.5981    1.5000    0.0000 C   0  0
   -1.2990    0.7500    0.0000 C   0  0
   -1.2990   -0.7500    0.0000 C   0  0
    0.0000   -1.5000    0.0000 C   0  0
    0.0000   -3.0000    0.0000 O   0  0
   -4.0238    1.0365    0.0000 C   0  0
   -4.4872   -0.3902    0.0000 O   0  0
   -4.9055    2.2500    0.0000 C   0  0
   -6.3963    2.4060    0.0000 C   0  0
   -7.0064    3.7763    0.0000 C   0  0
   -6.1247    4.9899    0.0000 C   0  0
   -4.6329    4.8331    0.0000 C   0  0
   -4.0238    3.4635    0.0000 C   0  0
   -7.0057    6.2029    0.0000 O   0  0
   -8.4323    5.7394    0.0000 C   0  0
   -8.4323    4.2394    0.0000 O   0  0
  1  2  1  0
  2  3  1  0
  3  4  2  0
  4  5  1  0
  5  6  1  0
  6  7  2  0
  6  8  1  0
  8  9  1  0
  9 10  1  0
 10 11  1  0
 11 12  1  0
 12 13  1  0
 13 14  1  0
 14 15  1  0
 15 16  1  0
 16 17  1  0
 17 12  1  0
  8 18  1  0
 18 19  2  0
 19 20  1  0
 20  5  2  0
 20 21  1  0
 21 22  2  0
 22  3  1  0
 22 23  1  0
 19 24  1  0
 24 25  2  0
 24 26  1  0
 26 27  2  0
 27 28  1  0
 28 29  2  0
 29 30  1  0
 30 31  2  0
 31 26  1  0
 31 18  1  0
 29 32  1  0
 32 33  1  0
 33 34  1  0
 34 28  1  0
M  END
> <Smiles>
COc1cc2c(=O)n(CCCN3CCOCC3)c3c(c2cc1O)C(=O)c1cc2c(cc1-3)OCO2

> <ID>
CHEMBL2177793

> <standard_value>
335

> <IC50_uM>
0.335

> <Activity>
Yes

> <pIC50>
6.474955193

> <BCI>
1

$$$$

  SciTegic03012415362D

 26 29  0  0  0  0            999 V2000
    8.5621   -4.4192    0.0000 C   0  0
    7.0621   -4.4171    0.0000 C   0  0
    6.3090   -5.7153    0.0000 C   0  0
    7.0591   -7.0143    0.0000 C   0  0
    6.3091   -8.3134    0.0000 C   0  0
    4.8091   -8.3134    0.0000 C   0  0
    4.0591   -7.0144    0.0000 C   0  0
    4.8090   -5.7153    0.0000 C   0  0
    4.0559   -4.4171    0.0000 N   0  0
    2.5551   -4.4192    0.0000 C   0  0
    1.8073   -5.7196    0.0000 O   0  0
    1.8032   -3.1233    0.0000 C   0  0
    2.4133   -1.7530    0.0000 S   0  0
    1.2990   -0.7500    0.0000 C   0  0
    1.2990    0.7500    0.0000 N   0  0
    0.0000    1.5000    0.0000 C   0  0
   -1.2990    0.7500    0.0000 C   0  0
   -1.2990   -0.7500    0.0000 C   0  0
    0.0000   -1.5000    0.0000 C   0  0
    0.3114   -2.9665    0.0000 C   0  0
   -0.6923   -4.0811    0.0000 N   0  0
   -2.5981    1.5000    0.0000 C   0  0
   -3.8971    0.7500    0.0000 O   0  0
   -2.5981    3.0000    0.0000 C   0  0
   -1.2991    3.7500    0.0000 C   0  0
    0.0000    3.0000    0.0000 C   0  0
  1  2  1  0
  2  3  1  0
  3  4  2  0
  4  5  1  0
  5  6  2  0
  6  7  1  0
  7  8  2  0
  8  3  1  0
  8  9  1  0
  9 10  1  0
 10 11  2  0
 10 12  1  0
 12 13  1  0
 13 14  1  0
 14 15  2  0
 15 16  1  0
 16 17  2  0
 17 18  1  0
 18 19  2  0
 19 14  1  0
 19 20  1  0
 20 12  2  0
 20 21  1  0
 17 22  1  0
 22 23  2  0
 22 24  1  0
 24 25  1  0
 25 26  1  0
 26 16  1  0
M  END
> <Smiles>
CCc1ccccc1NC(=O)c1sc2nc3c(cc2c1N)C(=O)CCC3

> <ID>
CHEMBL4748511

> <standard_value>
335

> <IC50_uM>
0.335

> <Activity>
Yes

> <pIC50>
6.474955193

> <BCI>
1

$$$$

  SciTegic03012415362D

 23 26  0  0  0  0            999 V2000
    3.8912   -5.2570    0.0000 C   0  0
    3.8933   -3.7570    0.0000 C   0  0
    2.5951   -3.0039    0.0000 C   0  0
    2.5973   -1.5031    0.0000 C   0  0
    1.2990   -0.7500    0.0000 C   0  0
    1.2990    0.7500    0.0000 C   0  0
    0.0000    1.5000    0.0000 C   0  0
   -1.2990    0.7500    0.0000 C   0  0
   -2.5981    1.5000    0.0000 C   0  0
   -1.2990   -0.7500    0.0000 C   0  0
    0.0000   -1.5000    0.0000 C   0  0
   -0.3114   -2.9665    0.0000 C   0  0
    0.6924   -4.0811    0.0000 O   0  0
   -1.8032   -3.1233    0.0000 O   0  0
   -2.4133   -1.7530    0.0000 C   0  0
    0.0000    3.0000    0.0000 O   0  0
    1.2990    3.7500    0.0000 C   0  0
    1.2990    5.2500    0.0000 C   0  0
    2.5980    6.0000    0.0000 C   0  0
    3.8971    5.2500    0.0000 C   0  0
    3.8971    3.7500    0.0000 C   0  0
    2.5981    3.0000    0.0000 C   0  0
    2.5981    1.5000    0.0000 O   0  0
  1  2  1  0
  2  3  1  0
  3  4  1  0
  4  5  1  0
  5  6  2  0
  6  7  1  0
  7  8  2  0
  8  9  1  0
  8 10  1  0
 10 11  2  0
 11  5  1  0
 11 12  1  0
 12 13  2  0
 12 14  1  0
 14 15  1  0
 15 10  1  0
  7 16  1  0
 16 17  1  0
 17 18  2  0
 18 19  1  0
 19 20  2  0
 20 21  1  0
 21 22  2  0
 22 17  1  0
 22 23  1  0
 23  6  1  0
M  END
> <Smiles>
CCCCc1c2c(c(C)c3c1C(=O)OC3)Oc1ccccc1O2

> <ID>
CHEMBL373804

> <standard_value>
338.84

> <IC50_uM>
0.33884

> <Activity>
Yes

> <pIC50>
6.470005327

> <BCI>
1

$$$$

  SciTegic03012415362D

 33 38  0  0  0  0            999 V2000
    2.5981   -1.5000    0.0000 C   0  0
    1.2990   -0.7500    0.0000 C   0  0
    1.2990    0.7500    0.0000 C   0  0
    2.5972    1.5031    0.0000 C   0  0
    3.8976    0.7554    0.0000 O   0  0
    2.5951    3.0039    0.0000 O   0  0
    3.8933    3.7570    0.0000 C   0  0
    3.8912    5.2578    0.0000 C   0  0
    5.1876    6.0124    0.0000 C   0  0
    5.1824    7.5124    0.0000 C   0  0
    3.8807    8.2579    0.0000 C   0  0
    2.5843    7.5034    0.0000 C   0  0
    2.5895    6.0034    0.0000 C   0  0
    0.0000    1.5000    0.0000 C   0  0  3  0  0  0
    0.0000    3.0008    0.0000 C   0  0
    1.2978    3.7529    0.0000 C   0  0
    1.2954    5.2529    0.0000 C   0  0
   -0.0048    6.0009    0.0000 C   0  0
   -1.3026    5.2488    0.0000 C   0  0
   -1.3002    3.7488    0.0000 C   0  0
   -2.4185    6.2500    0.0000 O   0  0
   -1.8106    7.6213    0.0000 C   0  0
   -0.3186    7.4669    0.0000 O   0  0
   -1.2990    0.7500    0.0000 N   0  0
   -1.2990   -0.7500    0.0000 C   0  0
   -2.7248   -1.2135    0.0000 N   0  0
   -3.6065    0.0000    0.0000 C   0  0
   -5.0972    0.1560    0.0000 C   0  0
   -5.7073    1.5264    0.0000 C   0  0
   -4.8257    2.7399    0.0000 C   0  0
   -3.3339    2.5831    0.0000 C   0  0
   -2.7248    1.2135    0.0000 C   0  0
    0.0000   -1.5000    0.0000 N   0  0
  1  2  1  0
  2  3  2  0
  3  4  1  0
  4  5  2  0
  4  6  1  0
  6  7  1  0
  7  8  1  0
  8  9  2  0
  9 10  1  0
 10 11  2  0
 11 12  1  0
 12 13  2  0
 13  8  1  0
  3 14  1  0
 14 15  1  4
 15 16  2  0
 16 17  1  0
 17 18  2  0
 18 19  1  0
 19 20  2  0
 20 15  1  0
 19 21  1  0
 21 22  1  0
 22 23  1  0
 23 18  1  0
 14 24  1  0
 24 25  1  0
 25 26  2  0
 26 27  1  0
 27 28  2  0
 28 29  1  0
 29 30  2  0
 30 31  1  0
 31 32  2  0
 32 27  1  0
 32 24  1  0
 25 33  1  0
 33  2  1  0
M  END
> <Smiles>
CC1=C(C(=O)OCc2ccccc2)C(c2ccc3c(c2)OCO3)n2c(nc3ccccc32)N1

> <ID>
CHEMBL4587172

> <standard_value>
338.84

> <IC50_uM>
0.33884

> <Activity>
Yes

> <pIC50>
6.470005327

> <BCI>
1

$$$$

  SciTegic03012415362D

 30 33  0  0  1  0            999 V2000
    3.8983   -0.7459    0.0000 C   0  0
    2.6003   -1.4977    0.0000 O   0  0
    1.2990   -0.7500    0.0000 C   0  0
    1.2990    0.7500    0.0000 C   0  0
    0.0000    1.5000    0.0000 C   0  0
   -1.2990    0.7500    0.0000 C   0  0
   -1.2990   -0.7500    0.0000 C   0  0
    0.0000   -1.5000    0.0000 C   0  0
   -0.0031   -3.0008    0.0000 O   0  0
   -1.3039   -3.7494    0.0000 S   0  0
   -2.6016   -2.9971    0.0000 N   0  0
   -1.3070   -5.2494    0.0000 O   0  0
   -2.6044   -4.4969    0.0000 O   0  0
   -2.5981    1.5000    0.0000 C   0  0
   -2.5981    3.0000    0.0000 C   0  0
   -1.2991    3.7500    0.0000 C   0  0  2  0  0  0
    0.0000    3.0000    0.0000 C   0  0  2  0  0  0
    1.2990    3.7500    0.0000 C   0  0
    1.2990    5.2500    0.0000 C   0  0
    0.0000    6.0000    0.0000 C   0  0  2  0  0  0
    1.2211    6.8711    0.0000 C   0  0
   -0.2851    7.4666    0.0000 C   0  0  1  0  0  0
    0.7337    8.5650    0.0000 O   0  0
    2.1972    8.2322    0.0000 S   0  0
    2.6400    6.7990    0.0000 C   0  0
    3.2173    9.3319    0.0000 O   0  0
    3.6597    7.8988    0.0000 O   0  0
   -1.7759    7.6329    0.0000 C   0  0
   -2.3947    6.2665    0.0000 C   0  0
   -1.2991    5.2500    0.0000 C   0  0  1  0  0  0
  1  2  1  0
  2  3  1  0
  3  4  2  0
  4  5  1  0
  5  6  2  0
  6  7  1  0
  7  8  2  0
  8  3  1  0
  8  9  1  0
  9 10  1  0
 10 11  1  0
 10 12  2  0
 10 13  2  0
  6 14  1  0
 14 15  1  0
 16 15  1  1
 16 17  1  0
 17  5  1  0
 17 18  1  6
 18 19  1  0
 19 20  1  0
 20 21  1  6
 20 22  1  0
 22 23  1  6
 23 24  1  0
 24 25  1  0
 24 26  2  0
 24 27  2  0
 22 28  1  0
 28 29  1  0
 30 29  1  6
 30 16  1  0
 30 20  1  0
M  END
> <Smiles>
COc1cc2c(cc1OS(N)(=O)=O)CC[C@@H]1[C@@H]2CC[C@]2(C)[C@@H](OS(C)(=O)=O)CC[C@@H]12

> <ID>
CHEMBL1091586

> <standard_value>
340

> <IC50_uM>
0.34

> <Activity>
Yes

> <pIC50>
6.468521083

> <BCI>
1

$$$$

  SciTegic03012415362D

 38 41  0  0  0  0            999 V2000
   -0.4585  -12.2246    0.0000 C   0  0
    0.2897  -10.9245    0.0000 O   0  0
    1.7905  -10.9214    0.0000 C   0  0
    2.5405  -12.2205    0.0000 C   0  0
    4.0405  -12.2205    0.0000 C   0  0
    4.7905  -10.9215    0.0000 C   0  0
    6.2914  -10.9185    0.0000 C   0  0
    7.0400   -9.6177    0.0000 C   0  0
    8.5408   -9.6147    0.0000 C   0  0
    9.2930  -10.9124    0.0000 O   0  0
    9.2894   -8.3139    0.0000 C   0  0
   10.7894   -8.3087    0.0000 C   0  0
   11.5350   -7.0071    0.0000 C   0  0
   13.0358   -7.0050    0.0000 O   0  0
   13.7884   -8.3026    0.0000 C   0  0
   10.7805   -5.7106    0.0000 C   0  0
   11.5238   -4.4068    0.0000 O   0  0
   10.7676   -3.1114    0.0000 C   0  0
    9.2806   -5.7157    0.0000 C   0  0
    8.5230   -4.4201    0.0000 O   0  0
    7.0231   -4.4274    0.0000 C   0  0
    8.5350   -7.0173    0.0000 C   0  0
    4.0406   -9.6224    0.0000 C   0  0
    2.5405   -9.6223    0.0000 C   0  0
    1.7928   -8.3210    0.0000 O   0  0
    2.5451   -7.0223    0.0000 C   0  0
    1.7974   -5.7210    0.0000 C   0  0
    0.2974   -5.7184    0.0000 O   0  0
    2.5497   -4.4224    0.0000 N   0  0
    1.8032   -3.1233    0.0000 C   0  0
    2.4133   -1.7530    0.0000 N   0  0
    1.2990   -0.7500    0.0000 C   0  0
    1.2990    0.7500    0.0000 C   0  0
    0.0000    1.5000    0.0000 C   0  0
   -1.2990    0.7500    0.0000 C   0  0
   -1.2990   -0.7500    0.0000 C   0  0
    0.0000   -1.5000    0.0000 C   0  0
    0.3114   -2.9665    0.0000 S   0  0
  1  2  1  0
  2  3  1  0
  3  4  2  0
  4  5  1  0
  5  6  2  0
  6  7  1  0
  7  8  2  0
  8  9  1  0
  9 10  2  0
  9 11  1  0
 11 12  2  0
 12 13  1  0
 13 14  1  0
 14 15  1  0
 13 16  2  0
 16 17  1  0
 17 18  1  0
 16 19  1  0
 19 20  1  0
 20 21  1  0
 19 22  2  0
 22 11  1  0
  6 23  1  0
 23 24  2  0
 24  3  1  0
 24 25  1  0
 25 26  1  0
 26 27  1  0
 27 28  2  0
 27 29  1  0
 29 30  1  0
 30 31  2  0
 31 32  1  0
 32 33  2  0
 33 34  1  0
 34 35  2  0
 35 36  1  0
 36 37  2  0
 37 32  1  0
 37 38  1  0
 38 30  1  0
M  END
> <Smiles>
COc1ccc(/C=C/C(=O)c2cc(OC)c(OC)c(OC)c2)cc1OCC(=O)Nc1nc2ccccc2s1

> <ID>
CHEMBL2036119

> <standard_value>
340

> <IC50_uM>
0.34

> <Activity>
Yes

> <pIC50>
6.468521083

> <BCI>
1

$$$$

  SciTegic03012415362D

 31 35  0  0  1  0            999 V2000
    1.8479    4.6057    0.0000 C   0  0
    2.3109    3.1790    0.0000 C   0  0
    3.7375    2.7155    0.0000 C   0  0
    4.9510    3.5971    0.0000 O   0  0
    3.7375    1.2155    0.0000 O   0  0
    2.3083    0.7500    0.0000 C   0  0  1  0  0  0
    1.4266    1.9635    0.0000 C   0  0  1  0  0  0
    0.0000    2.4271    0.0000 C   0  0
   -1.4266    1.9635    0.0000 C   0  0
   -2.3083    0.7500    0.0000 C   0  0
   -3.7419    1.2126    0.0000 C   0  0
   -4.8559    0.2068    0.0000 N   0  0
   -6.3079    0.5283    0.0000 C   0  0
   -7.0535   -0.7733    0.0000 C   0  0
   -8.5455   -0.9353    0.0000 C   0  0
   -9.5160    0.2019    0.0000 C   0  0
  -10.9908   -0.0717    0.0000 C   0  0
  -11.4912   -1.4858    0.0000 C   0  0
  -12.9663   -1.7626    0.0000 O   0  0
  -13.4647   -3.1774    0.0000 C   0  0
  -10.5168   -2.6262    0.0000 C   0  0
   -9.0420   -2.3525    0.0000 C   0  0
   -6.0460   -1.8845    0.0000 N   0  0
   -4.6777   -1.2697    0.0000 N   0  0
   -2.3083   -0.7500    0.0000 C   0  0
   -1.4266   -1.9635    0.0000 C   0  0
    0.0000   -2.4271    0.0000 C   0  0
    1.4266   -1.9635    0.0000 C   0  0  1  0  0  0
    2.8116   -1.3875    0.0000 C   0  0
    2.8750   -2.1886    0.0000 O   0  0
    2.3083   -0.7500    0.0000 C   0  0  1  0  0  0
  1  2  2  0
  2  3  1  0
  3  4  2  0
  3  5  1  0
  6  5  1  6
  6  7  1  0
  7  2  1  0
  7  8  1  1
  8  9  1  0
  9 10  1  0
 10 11  1  0
 11 12  1  0
 12 13  1  0
 13 14  2  0
 14 15  1  0
 15 16  2  0
 16 17  1  0
 17 18  2  0
 18 19  1  0
 19 20  1  0
 18 21  1  0
 21 22  2  0
 22 15  1  0
 14 23  1  0
 23 24  2  0
 24 12  1  0
 10 25  2  0
 25 26  1  0
 26 27  1  0
 27 28  1  0
 28 29  1  1
 28 30  1  0
 31 30  1  6
 31  6  1  0
 31 28  1  0
M  END
> <Smiles>
C=C1C(=O)O[C@H]2[C@H]1CC/C(Cn1cc(-c3ccc(OC)cc3)nn1)=C\CC[C@@]1(C)O[C@@H]21

> <ID>
CHEMBL4278178

> <standard_value>
340

> <IC50_uM>
0.34

> <Activity>
Yes

> <pIC50>
6.468521083

> <BCI>
1

$$$$

  SciTegic03012415362D

 24 27  0  0  0  0            999 V2000
    3.8912   -5.2570    0.0000 N   0  0
    3.8933   -3.7570    0.0000 C   0  0
    2.5951   -3.0039    0.0000 C   0  0  3  0  0  0
    1.2948   -3.7516    0.0000 O   0  0
    2.5973   -1.5031    0.0000 C   0  0
    1.2990   -0.7500    0.0000 N   0  0
    1.2990    0.7500    0.0000 C   0  0
    0.0000    1.5000    0.0000 C   0  0
   -1.2990    0.7500    0.0000 C   0  0
   -2.5981    1.5000    0.0000 C   0  0
   -3.8971    0.7500    0.0000 C   0  0
   -3.8971   -0.7500    0.0000 C   0  0
   -2.5981   -1.5000    0.0000 C   0  0
   -1.2990   -0.7500    0.0000 C   0  0
    0.0000   -1.5000    0.0000 C   0  0
    0.0000   -3.0000    0.0000 O   0  0
    0.3114    2.9665    0.0000 C   0  0
   -0.6924    4.0811    0.0000 O   0  0
    1.8032    3.1233    0.0000 C   0  0
    2.6837    4.3363    0.0000 C   0  0
    4.1755    4.1795    0.0000 C   0  0
    4.7856    2.8092    0.0000 C   0  0
    3.9040    1.5957    0.0000 C   0  0
    2.4133    1.7530    0.0000 C   0  0
  1  2  1  0
  2  3  1  0
  3  4  1  4
  3  5  1  0
  5  6  1  0
  6  7  1  0
  7  8  2  0
  8  9  1  0
  9 10  2  0
 10 11  1  0
 11 12  2  0
 12 13  1  0
 13 14  2  0
 14  9  1  0
 14 15  1  0
 15  6  1  0
 15 16  2  0
  8 17  1  0
 17 18  2  0
 17 19  1  0
 19 20  2  0
 20 21  1  0
 21 22  2  0
 22 23  1  0
 23 24  2  0
 24 19  1  0
 24  7  1  0
M  END
> <Smiles>
NCC(O)Cn1c2c(c3ccccc3c1=O)C(=O)c1ccccc1-2

> <ID>
CHEMBL1822037

> <standard_value>
344

> <IC50_uM>
0.344

> <Activity>
Yes

> <pIC50>
6.463441557

> <BCI>
1

$$$$

  SciTegic03012415362D

 15 14  0  0  0  0            999 V2000
    1.3000    2.2500    0.0000 C   0  0
    1.3000    0.7500    0.0000 C   0  0
    0.0007    0.0004    0.0000 O   0  0
    2.6000    0.0000    0.0000 O   0  0
    3.9000    0.7500    0.0000 C   0  0
    5.2000    0.0000    0.0000 C   0  0  3  0  0  0
    6.5000    0.7500    0.0000 C   0  0
    7.7999    0.0000    0.0000 S   0  0
    9.0999    0.7500    0.0000 As  0  0
   10.3992    0.0004    0.0000 C   0  0
    9.0999    2.2500    0.0000 C   0  0
    5.2030   -1.5008    0.0000 O   0  0
    6.5039   -2.2494    0.0000 C   0  0
    7.8016   -1.4971    0.0000 C   0  0
    6.5070   -3.7494    0.0000 O   0  0
  1  2  1  0
  2  3  2  0
  2  4  1  0
  4  5  1  0
  6  5  1  4
  6  7  1  0
  7  8  1  0
  8  9  1  0
  9 10  1  0
  9 11  1  0
  6 12  1  0
 12 13  1  0
 13 14  1  0
 13 15  2  0
M  END
> <Smiles>
CC(=O)OCC(CS[As](C)C)OC(C)=O

> <ID>
CHEMBL234958

> <standard_value>
346.74

> <IC50_uM>
0.34674

> <Activity>
Yes

> <pIC50>
6.459996055

> <BCI>
1

$$$$

  SciTegic03012415362D

 38 43  0  0  1  0            999 V2000
    5.9843   -1.7144    0.0000 C   0  0
    5.6526   -0.2515    0.0000 O   0  0
    4.2194    0.1938    0.0000 C   0  0
    3.1198   -0.8265    0.0000 C   0  0
    1.6852   -0.3846    0.0000 C   0  0
    1.3514    1.0778    0.0000 C   0  0
    2.4522    2.0983    0.0000 C   0  0
    3.8856    1.6562    0.0000 C   0  0
    4.9837    2.6793    0.0000 O   0  0
    4.6476    4.1420    0.0000 C   0  0
    5.7457    5.1651    0.0000 C   0  0
    5.4096    6.6278    0.0000 C   0  0
    6.5077    7.6509    0.0000 C   0  0
    6.1717    9.1136    0.0000 O   0  0
    7.2697   10.1367    0.0000 C   0  0
    6.9360   11.5991    0.0000 C   0  0
    8.0355   12.6194    0.0000 C   0  0
    9.4689   12.1773    0.0000 C   0  0
   10.5690   13.1981    0.0000 C   0  0
   10.3762   14.6728    0.0000 N   0  0
   11.7376   15.3007    0.0000 C   0  0
   12.1820   16.7334    0.0000 C   0  0
   13.6449   17.0649    0.0000 C   0  0
   14.6634   15.9637    0.0000 C   0  0
   14.2191   14.5310    0.0000 C   0  0
   12.7562   14.1995    0.0000 C   0  0
   12.0243   12.8911    0.0000 S   0  0
    9.8027   10.7149    0.0000 C   0  0
    8.7032    9.6946    0.0000 C   0  0
    0.0000    1.7286    0.0000 N   0  0
   -1.3515    1.0777    0.0000 C   0  0
   -1.6852   -0.3847    0.0000 C   0  0  2  0  0  0
   -3.0899   -0.9120    0.0000 C   0  0
   -3.0226   -2.4105    0.0000 C   0  0
   -1.5767   -2.8095    0.0000 C   0  0
   -0.7500   -1.5574    0.0000 N   0  0
    0.7500   -1.5574    0.0000 C   0  0
    1.4008   -2.9088    0.0000 O   0  0
  1  2  1  0
  2  3  1  0
  3  4  2  0
  4  5  1  0
  5  6  2  0
  6  7  1  0
  7  8  2  0
  8  3  1  0
  8  9  1  0
  9 10  1  0
 10 11  1  0
 11 12  1  0
 12 13  1  0
 13 14  1  0
 14 15  1  0
 15 16  2  0
 16 17  1  0
 17 18  2  0
 18 19  1  0
 19 20  2  0
 20 21  1  0
 21 22  2  0
 22 23  1  0
 23 24  2  0
 24 25  1  0
 25 26  2  0
 26 21  1  0
 26 27  1  0
 27 19  1  0
 18 28  1  0
 28 29  2  0
 29 15  1  0
  6 30  1  0
 30 31  2  0
 32 31  1  1
 32 33  1  0
 33 34  1  0
 34 35  1  0
 35 36  1  0
 36 32  1  0
 36 37  1  0
 37  5  1  0
 37 38  2  0
M  END
> <Smiles>
COc1cc2c(cc1OCCCCOc1ccc(-c3nc4ccccc4s3)cc1)N=C[C@@H]1CCCN1C2=O

> <ID>
CHEMBL1172409

> <standard_value>
346.74

> <IC50_uM>
0.34674

> <Activity>
Yes

> <pIC50>
6.459996055

> <BCI>
1

$$$$

  SciTegic03012415362D

 26 29  0  0  1  0            999 V2000
    5.8543    1.2993    0.0000 C   0  0
    5.1047    0.0000    0.0000 C   0  0
    6.6047    0.0007    0.0000 C   0  0
    5.8555   -1.2985    0.0000 O   0  0
    3.6065    0.0000    0.0000 C   0  0  2  0  0  0
    2.7248   -1.2135    0.0000 C   0  0
    1.2990   -0.7500    0.0000 C   0  0
    1.2990    0.7500    0.0000 C   0  0
    0.0000    1.5000    0.0000 C   0  0
   -1.2990    0.7500    0.0000 C   0  0
   -2.5981    1.5000    0.0000 O   0  0
   -1.2990   -0.7500    0.0000 C   0  0
   -2.5981   -1.5000    0.0000 C   0  0
   -3.8971   -0.7500    0.0000 O   0  0
   -2.5981   -3.0000    0.0000 C   0  0
   -3.8977   -3.7504    0.0000 C   0  0
   -5.1981   -3.0025    0.0000 C   0  0
   -6.4959   -3.7546    0.0000 C   0  0
   -6.4935   -5.2546    0.0000 C   0  0
   -7.7914   -6.0067    0.0000 O   0  0
   -5.1933   -6.0025    0.0000 C   0  0
   -3.8955   -5.2505    0.0000 C   0  0
   -1.2990   -3.7500    0.0000 C   0  0
    0.0000   -3.0000    0.0000 O   0  0
    0.0000   -1.5000    0.0000 C   0  0
    2.7248    1.2135    0.0000 O   0  0
  1  2  1  0
  2  3  1  0
  2  4  1  0
  5  2  1  6
  5  6  1  0
  6  7  1  0
  7  8  2  0
  8  9  1  0
  9 10  2  0
 10 11  1  0
 10 12  1  0
 12 13  1  0
 13 14  2  0
 13 15  1  0
 15 16  1  0
 16 17  2  0
 17 18  1  0
 18 19  2  0
 19 20  1  0
 19 21  1  0
 21 22  2  0
 22 16  1  0
 15 23  2  0
 23 24  1  0
 24 25  1  0
 25  7  1  0
 25 12  2  0
  8 26  1  0
 26  5  1  0
M  END
> <Smiles>
CC(C)(O)[C@@H]1Cc2c(cc(O)c3c(=O)c(-c4ccc(O)cc4)coc23)O1

> <ID>
CHEMBL4638928

> <standard_value>
346.74

> <IC50_uM>
0.34674

> <Activity>
Yes

> <pIC50>
6.459996055

> <BCI>
1

$$$$

  SciTegic03012415362D

 21 24  0  0  1  0            999 V2000
   -0.6872   -2.7329    0.0000 C   0  0
    0.2851   -2.9666    0.0000 C   0  0  2  0  0  0
    0.7521   -4.3921    0.0000 O   0  0
    1.7758   -3.1329    0.0000 C   0  0
    2.3947   -1.7666    0.0000 C   0  0
    1.2990   -0.7500    0.0000 C   0  0  1  0  0  0
    1.2990    0.7500    0.0000 C   0  0  2  0  0  0
    2.5981    1.5000    0.0000 C   0  0
    2.5981    3.0000    0.0000 C   0  0
    1.2990    3.7500    0.0000 C   0  0
    1.2990    5.2500    0.0000 C   0  0
    0.0000    6.0000    0.0000 C   0  0
   -0.0001    7.5000    0.0000 O   0  0
   -1.2991    5.2500    0.0000 C   0  0
   -1.2991    3.7500    0.0000 C   0  0
    0.0000    3.0000    0.0000 C   0  0
    0.0000    1.5000    0.0000 C   0  0  1  0  0  0
   -1.2990    0.7500    0.0000 C   0  0
   -1.2990   -0.7500    0.0000 C   0  0
    0.0000   -1.5000    0.0000 C   0  0  2  0  0  0
   -0.8141   -2.0807    0.0000 C   0  0
  2  1  1  1
  2  3  1  0
  2  4  1  0
  4  5  1  0
  6  5  1  6
  6  7  1  0
  7  8  1  1
  8  9  1  0
  9 10  1  0
 10 11  2  0
 11 12  1  0
 12 13  1  0
 12 14  2  0
 14 15  1  0
 15 16  2  0
 16 10  1  0
 16 17  1  0
 17  7  1  0
 17 18  1  6
 18 19  1  0
 19 20  1  0
 20  6  1  0
 20  2  1  0
 20 21  1  6
M  END
> <Smiles>
C[C@]1(O)CC[C@H]2[C@@H]3CCc4cc(O)ccc4[C@H]3CC[C@@]21C

> <ID>
CHEMBL1627631

> <standard_value>
350

> <IC50_uM>
0.35

> <Activity>
Yes

> <pIC50>
6.455931956

> <BCI>
1

$$$$

  SciTegic03012415362D

 28 31  0  0  1  0            999 V2000
    3.8983   -0.7459    0.0000 C   0  0
    2.6003   -1.4977    0.0000 C   0  0
    1.2990   -0.7500    0.0000 C   0  0
    1.2990    0.7500    0.0000 C   0  0
    0.0000    1.5000    0.0000 C   0  0
   -1.2990    0.7500    0.0000 C   0  0
   -1.2990   -0.7500    0.0000 C   0  0
    0.0000   -1.5000    0.0000 C   0  0
   -0.0031   -3.0008    0.0000 O   0  0
   -1.3039   -3.7494    0.0000 S   0  0
   -2.6016   -2.9971    0.0000 N   0  0
   -1.3070   -5.2494    0.0000 O   0  0
   -2.6044   -4.4969    0.0000 O   0  0
   -2.5981    1.5000    0.0000 C   0  0
   -2.5981    3.0000    0.0000 C   0  0
   -1.2991    3.7500    0.0000 C   0  0  2  0  0  0
    0.0000    3.0000    0.0000 C   0  0  2  0  0  0
    1.2990    3.7500    0.0000 C   0  0
    1.2990    5.2500    0.0000 C   0  0
    0.0000    6.0000    0.0000 C   0  0  2  0  0  0
    1.2211    6.8711    0.0000 C   0  0
   -0.2851    7.4666    0.0000 C   0  0  1  0  0  0
    0.7337    8.5650    0.0000 C   0  0
    2.1972    8.2322    0.0000 C   0  0
    3.2173    9.3319    0.0000 O   0  0
   -1.7759    7.6329    0.0000 C   0  0
   -2.3947    6.2665    0.0000 C   0  0
   -1.2991    5.2500    0.0000 C   0  0  1  0  0  0
  1  2  1  0
  2  3  1  0
  3  4  2  0
  4  5  1  0
  5  6  2  0
  6  7  1  0
  7  8  2  0
  8  3  1  0
  8  9  1  0
  9 10  1  0
 10 11  1  0
 10 12  2  0
 10 13  2  0
  6 14  1  0
 14 15  1  0
 16 15  1  1
 16 17  1  0
 17  5  1  0
 17 18  1  6
 18 19  1  0
 19 20  1  0
 20 21  1  6
 20 22  1  0
 22 23  1  6
 23 24  1  0
 24 25  1  0
 22 26  1  0
 26 27  1  0
 28 27  1  6
 28 16  1  0
 28 20  1  0
M  END
> <Smiles>
CCc1cc2c(cc1OS(N)(=O)=O)CC[C@@H]1[C@@H]2CC[C@]2(C)[C@@H](CCO)CC[C@@H]12

> <ID>
CHEMBL1812444

> <standard_value>
350

> <IC50_uM>
0.35

> <Activity>
Yes

> <pIC50>
6.455931956

> <BCI>
1

$$$$

  SciTegic03012415362D

 33 37  0  0  0  0            999 V2000
    2.5951   -3.0031    0.0000 C   0  0
    2.5973   -1.5031    0.0000 O   0  0
    1.2990   -0.7500    0.0000 C   0  0
    1.2990    0.7500    0.0000 C   0  0
    0.0000    1.5000    0.0000 N   0  0
   -1.2990    0.7500    0.0000 C   0  0
   -1.2990   -0.7500    0.0000 C   0  0
    0.0000   -1.5000    0.0000 C   0  0
   -2.7248   -1.2135    0.0000 C   0  0
   -3.1882   -2.6402    0.0000 O   0  0
   -3.6065    0.0000    0.0000 C   0  0
   -2.7248    1.2135    0.0000 C   0  0
   -3.3339    2.5831    0.0000 N   0  0
   -2.4537    3.7988    0.0000 C   0  0
   -3.0656    5.1692    0.0000 C   0  0
   -2.1854    6.3848    0.0000 C   0  0
   -2.7972    7.7553    0.0000 N   0  0
   -1.9193    8.9716    0.0000 C   0  0
   -2.5336   10.3400    0.0000 C   0  0
   -4.0259   10.4923    0.0000 N   0  0
   -4.9038    9.2761    0.0000 C   0  0
   -4.2896    7.9076    0.0000 C   0  0
   -4.8257    2.7399    0.0000 C   0  0
   -5.4358    4.1102    0.0000 O   0  0
   -5.7073    1.5263    0.0000 C   0  0
   -7.1991    1.6831    0.0000 C   0  0
   -8.0808    0.4696    0.0000 C   0  0
   -9.5737    0.6234    0.0000 N   0  3
  -10.4537   -0.5914    0.0000 O   0  0
  -10.1862    1.9927    0.0000 O   0  5
   -7.4707   -0.9007    0.0000 C   0  0
   -5.9789   -1.0575    0.0000 C   0  0
   -5.0972    0.1560    0.0000 C   0  0
  1  2  1  0
  2  3  1  0
  3  4  2  0
  4  5  1  0
  5  6  2  0
  6  7  1  0
  7  8  2  0
  8  3  1  0
  7  9  1  0
  9 10  2  0
  9 11  1  0
 11 12  2  0
 12  6  1  0
 12 13  1  0
 13 14  1  0
 14 15  1  0
 15 16  1  0
 16 17  1  0
 17 18  1  0
 18 19  1  0
 19 20  1  0
 20 21  1  0
 21 22  1  0
 22 17  1  0
 13 23  1  0
 23 24  2  0
 23 25  1  0
 25 26  2  0
 26 27  1  0
 27 28  1  0
 28 29  2  0
 28 30  1  0
 27 31  2  0
 31 32  1  0
 32 33  2  0
 33 11  1  0
 33 25  1  0
M  CHG  2  28   1  30  -1
M  END
> <Smiles>
COc1cnc2c(c1)C(=O)c1c-2n(CCCN2CCNCC2)c(=O)c2cc([N+](=O)[O-])ccc12

> <ID>
CHEMBL4084447

> <standard_value>
355

> <IC50_uM>
0.355

> <Activity>
Yes

> <pIC50>
6.449771647

> <BCI>
1

$$$$

  SciTegic03012415362D

 27 31  0  0  0  0            999 V2000
    2.5951   -3.0031    0.0000 C   0  0
    2.5973   -1.5031    0.0000 O   0  0
    1.2990   -0.7500    0.0000 C   0  0
    1.2990    0.7500    0.0000 C   0  0
    0.0000    1.5000    0.0000 C   0  0
   -1.2990    0.7500    0.0000 C   0  0
   -1.2990   -0.7500    0.0000 C   0  0
    0.0000   -1.5000    0.0000 C   0  0
   -2.5981   -1.5000    0.0000 C   0  0  3  0  0  0
   -2.5981   -3.0008    0.0000 C   0  0
   -1.3002   -3.7529    0.0000 C   0  0
   -1.3026   -5.2529    0.0000 C   0  0
   -0.0025   -6.0027    0.0000 O   0  0
    1.2967   -5.2529    0.0000 C   0  0
   -2.6028   -6.0009    0.0000 C   0  0
   -3.9007   -5.2488    0.0000 C   0  0
   -3.8983   -3.7488    0.0000 C   0  0
   -5.0165   -6.2500    0.0000 O   0  0
   -4.4086   -7.6213    0.0000 C   0  0
   -2.9166   -7.4669    0.0000 O   0  0
   -3.8971   -0.7500    0.0000 C   0  0
   -3.8971    0.7500    0.0000 C   0  0
   -5.3229    1.2135    0.0000 C   0  0
   -6.2045    0.0000    0.0000 O   0  0
   -5.3229   -1.2135    0.0000 C   0  0
   -5.7862   -2.6402    0.0000 O   0  0
   -2.5981    1.5000    0.0000 N   0  0
  1  2  1  0
  2  3  1  0
  3  4  2  0
  4  5  1  0
  5  6  2  0
  6  7  1  0
  7  8  2  0
  8  3  1  0
  7  9  1  0
  9 10  1  4
 10 11  2  0
 11 12  1  0
 12 13  1  0
 13 14  1  0
 12 15  2  0
 15 16  1  0
 16 17  2  0
 17 10  1  0
 16 18  1  0
 18 19  1  0
 19 20  1  0
 20 15  1  0
  9 21  1  0
 21 22  2  0
 22 23  1  0
 23 24  1  0
 24 25  1  0
 25 21  1  0
 25 26  2  0
 22 27  1  0
 27  6  1  0
M  END
> <Smiles>
COc1ccc2c(c1)C(c1cc(OC)c3c(c1)OCO3)C1=C(COC1=O)N2

> <ID>
CHEMBL1917369

> <standard_value>
359

> <IC50_uM>
0.359

> <Activity>
Yes

> <pIC50>
6.444905551

> <BCI>
1

$$$$

  SciTegic03012415362D

 39 43  0  0  0  0            999 V2000
    3.8983   -0.7459    0.0000 C   0  0
    2.6003   -1.4977    0.0000 O   0  0
    1.2990   -0.7500    0.0000 C   0  0
    1.2990    0.7500    0.0000 C   0  0
    0.0000    1.5000    0.0000 C   0  0
    0.0000    3.0000    0.0000 C   0  0
   -1.2991    3.7500    0.0000 C   0  0
   -2.5981    3.0000    0.0000 N   0  0
   -3.8994    3.7477    0.0000 C   0  0
   -5.1981    2.9954    0.0000 C   0  0
   -6.4994    3.7432    0.0000 C   0  0
   -7.7981    2.9909    0.0000 N   0  0
   -9.0994    3.7386    0.0000 C   0  0
  -10.3980    2.9864    0.0000 C   0  0
  -11.6993    3.7341    0.0000 C   0  0
  -12.9980    2.9818    0.0000 N   0  0
  -14.2993    3.7295    0.0000 C   0  0
  -14.3019    5.2295    0.0000 C   0  0
  -13.0017    4.4820    0.0000 C   0  0
  -15.5980    2.9773    0.0000 C   0  0
  -16.8986    3.7246    0.0000 O   0  0
   -2.5981    1.5000    0.0000 C   0  0
   -3.8971    0.7500    0.0000 O   0  0
   -1.2990    0.7500    0.0000 C   0  0
   -1.2990   -0.7500    0.0000 C   0  0
    0.0000   -1.5000    0.0000 C   0  0
   -0.0031   -3.0008    0.0000 O   0  0
   -1.3032   -3.7490    0.0000 C   0  0
   -0.9876    5.2165    0.0000 C   0  0
   -1.8692    6.4288    0.0000 C   0  0
   -1.2591    7.7991    0.0000 C   0  0
    0.2327    7.9559    0.0000 C   0  0
    1.1144    6.7424    0.0000 C   0  0
    0.5042    5.3733    0.0000 C   0  0
    1.1143    4.0030    0.0000 C   0  0
    2.5815    3.6910    0.0000 O   0  0
    0.5446    9.4223    0.0000 O   0  0
   -0.7544   10.1723    0.0000 C   0  0
   -1.8691    9.1686    0.0000 O   0  0
  1  2  1  0
  2  3  1  0
  3  4  2  0
  4  5  1  0
  5  6  1  0
  6  7  2  0
  7  8  1  0
  8  9  1  0
  9 10  1  0
 10 11  1  0
 11 12  1  0
 12 13  1  0
 13 14  1  0
 14 15  1  0
 15 16  1  0
 16 17  1  0
 17 18  1  0
 17 19  1  0
 17 20  1  0
 20 21  1  0
  8 22  1  0
 22 23  2  0
 22 24  1  0
 24  5  2  0
 24 25  1  0
 25 26  2  0
 26  3  1  0
 26 27  1  0
 27 28  1  0
  7 29  1  0
 29 30  2  0
 30 31  1  0
 31 32  2  0
 32 33  1  0
 33 34  2  0
 34 29  1  0
 34 35  1  0
 35  6  1  0
 35 36  2  0
 32 37  1  0
 37 38  1  0
 38 39  1  0
 39 31  1  0
M  END
> <Smiles>
COc1cc2c3c(n(CCCNCCCNC(C)(C)CO)c(=O)c2cc1OC)-c1cc2c(cc1C3=O)OCO2

> <ID>
CHEMBL1161349

> <standard_value>
360

> <IC50_uM>
0.36

> <Activity>
Yes

> <pIC50>
6.443697499

> <BCI>
1

$$$$

  SciTegic03012415362D

 30 34  0  0  0  0            999 V2000
    2.5951   -3.0031    0.0000 C   0  0
    2.5973   -1.5031    0.0000 O   0  0
    1.2990   -0.7500    0.0000 C   0  0
    1.2990    0.7500    0.0000 C   0  0
    0.0000    1.5000    0.0000 N   0  0
   -1.2990    0.7500    0.0000 C   0  0
   -1.2990   -0.7500    0.0000 C   0  0
    0.0000   -1.5000    0.0000 C   0  0
   -2.7248   -1.2135    0.0000 C   0  0
   -3.1882   -2.6402    0.0000 O   0  0
   -3.6065    0.0000    0.0000 C   0  0
   -2.7248    1.2135    0.0000 C   0  0
   -3.3339    2.5831    0.0000 N   0  0
   -2.4537    3.7988    0.0000 C   0  0
   -3.0656    5.1692    0.0000 C   0  0
   -2.1854    6.3848    0.0000 C   0  0
   -2.7972    7.7553    0.0000 N   0  0
   -2.0423    9.0367    0.0000 C   0  0
   -3.0494   10.1483    0.0000 C   0  0
   -4.4179    9.5340    0.0000 C   0  0
   -4.2565    8.0427    0.0000 C   0  0
   -4.8257    2.7399    0.0000 C   0  0
   -5.4358    4.1102    0.0000 O   0  0
   -5.7073    1.5263    0.0000 C   0  0
   -7.1991    1.6831    0.0000 C   0  0
   -8.0808    0.4696    0.0000 C   0  0
   -9.5726    0.6264    0.0000 F   0  0
   -7.4707   -0.9007    0.0000 C   0  0
   -5.9789   -1.0575    0.0000 C   0  0
   -5.0972    0.1560    0.0000 C   0  0
  1  2  1  0
  2  3  1  0
  3  4  2  0
  4  5  1  0
  5  6  2  0
  6  7  1  0
  7  8  2  0
  8  3  1  0
  7  9  1  0
  9 10  2  0
  9 11  1  0
 11 12  2  0
 12  6  1  0
 12 13  1  0
 13 14  1  0
 14 15  1  0
 15 16  1  0
 16 17  1  0
 17 18  1  0
 18 19  1  0
 19 20  1  0
 20 21  1  0
 21 17  1  0
 13 22  1  0
 22 23  2  0
 22 24  1  0
 24 25  2  0
 25 26  1  0
 26 27  1  0
 26 28  2  0
 28 29  1  0
 29 30  2  0
 30 11  1  0
 30 24  1  0
M  END
> <Smiles>
COc1cnc2c(c1)C(=O)c1c-2n(CCCN2CCCC2)c(=O)c2cc(F)ccc12

> <ID>
CHEMBL4094373

> <standard_value>
360

> <IC50_uM>
0.36

> <Activity>
Yes

> <pIC50>
6.443697499

> <BCI>
1

$$$$

  SciTegic03012415362D

 27 30  0  0  0  0            999 V2000
    5.1887   -6.0105    0.0000 C   0  0
    3.8912   -5.2578    0.0000 N   0  0
    3.8933   -3.7570    0.0000 C   0  0
    2.5951   -3.0039    0.0000 C   0  0
    2.5973   -1.5031    0.0000 C   0  0
    1.2990   -0.7500    0.0000 N   0  0
    1.2990    0.7500    0.0000 C   0  0
    0.0000    1.5000    0.0000 C   0  0
   -1.2990    0.7500    0.0000 C   0  0
   -2.5981    1.5000    0.0000 C   0  0
   -3.8971    0.7500    0.0000 C   0  0
   -3.8971   -0.7500    0.0000 C   0  0
   -5.1961   -1.5000    0.0000 F   0  0
   -2.5981   -1.5000    0.0000 C   0  0
   -1.2990   -0.7500    0.0000 C   0  0
    0.0000   -1.5000    0.0000 C   0  0
    0.0000   -3.0000    0.0000 O   0  0
    0.3114    2.9665    0.0000 C   0  0
   -0.6924    4.0811    0.0000 O   0  0
    1.8032    3.1233    0.0000 C   0  0
    2.6837    4.3363    0.0000 C   0  0
    4.1755    4.1795    0.0000 C   0  0
    5.0602    5.3919    0.0000 O   0  0
    6.5517    5.2330    0.0000 C   0  0
    4.7856    2.8092    0.0000 C   0  0
    3.9040    1.5957    0.0000 N   0  0
    2.4133    1.7530    0.0000 C   0  0
  1  2  1  0
  2  3  1  0
  3  4  1  0
  4  5  1  0
  5  6  1  0
  6  7  1  0
  7  8  2  0
  8  9  1  0
  9 10  2  0
 10 11  1  0
 11 12  2  0
 12 13  1  0
 12 14  1  0
 14 15  2  0
 15  9  1  0
 15 16  1  0
 16  6  1  0
 16 17  2  0
  8 18  1  0
 18 19  2  0
 18 20  1  0
 20 21  2  0
 21 22  1  0
 22 23  1  0
 23 24  1  0
 22 25  2  0
 25 26  1  0
 26 27  2  0
 27 20  1  0
 27  7  1  0
M  END
> <Smiles>
CNCCCn1c2c(c3ccc(F)cc3c1=O)C(=O)c1cc(OC)cnc1-2

> <ID>
CHEMBL4070873

> <standard_value>
368

> <IC50_uM>
0.368

> <Activity>
Yes

> <pIC50>
6.434152181

> <BCI>
1

$$$$

  SciTegic03012415362D

 22 24  0  0  0  0            999 V2000
    6.9792    3.3914    0.0000 O   0  0
    7.2939    1.9248    0.0000 C   0  0
    8.6654    1.3173    0.0000 C   0  0
    8.5114   -0.1748    0.0000 C   0  0
    9.6221   -1.1830    0.0000 O   0  0
    7.0537   -0.4695    0.0000 N   0  0
    6.4430   -1.8405    0.0000 C   0  0
    7.3249   -3.0538    0.0000 O   0  0
    4.9531   -1.9978    0.0000 C   0  0
    3.9511   -0.8815    0.0000 N   0  0
    2.5987   -1.5004    0.0000 N   0  0
    1.2990   -0.7500    0.0000 C   0  0
    1.2990    0.7500    0.0000 C   0  0
    0.0000    1.5000    0.0000 C   0  0
   -1.2990    0.7500    0.0000 C   0  0
   -2.5981    1.5000    0.0000 Cl  0  0
   -1.2990   -0.7500    0.0000 C   0  0
    0.0000   -1.5000    0.0000 C   0  0
    2.7343   -2.9815    0.0000 C   0  0
    4.2010   -3.2956    0.0000 C   0  0
    4.8089   -4.6669    0.0000 O   0  0
    6.2923    0.8082    0.0000 N   0  0
  1  2  2  0
  2  3  1  0
  3  4  1  0
  4  5  2  0
  4  6  1  0
  6  7  1  0
  7  8  2  0
  7  9  1  0
  9 10  2  0
 10 11  1  0
 11 12  1  0
 12 13  2  0
 13 14  1  0
 14 15  2  0
 15 16  1  0
 15 17  1  0
 17 18  2  0
 18 12  1  0
 11 19  1  0
 19 20  2  0
 20  9  1  0
 20 21  1  0
  6 22  1  0
 22  2  1  0
M  END
> <Smiles>
O=C1CC(=O)N(C(=O)c2nn(-c3ccc(Cl)cc3)cc2O)N1

> <ID>
CHEMBL1089880

> <standard_value>
370

> <IC50_uM>
0.37

> <Activity>
Yes

> <pIC50>
6.431798276

> <BCI>
1

$$$$

  SciTegic03012415362D

 26 28  0  0  0  0            999 V2000
    3.8983   -0.7459    0.0000 C   0  0
    2.6003   -1.4977    0.0000 O   0  0
    1.2990   -0.7500    0.0000 C   0  0
    1.2990    0.7500    0.0000 C   0  0
    0.0000    1.5000    0.0000 C   0  0
   -1.2990    0.7500    0.0000 C   0  0
   -2.5987    1.5004    0.0000 N   0  0
   -3.9492    0.8772    0.0000 C   0  0
   -4.9546    1.9903    0.0000 N   0  0
   -4.2067    3.2905    0.0000 N   0  0
   -2.7390    2.9810    0.0000 C   0  0
   -1.6193    3.9803    0.0000 C   0  0
   -0.1673    3.6256    0.0000 C   0  0
    0.8689    4.7101    0.0000 C   0  0
    2.3264    4.3518    0.0000 O   0  0
    2.7454    2.9115    0.0000 C   0  0
    0.4478    6.1498    0.0000 C   0  0
    1.4824    7.2371    0.0000 O   0  0
    1.0592    8.6761    0.0000 C   0  0
   -1.0096    6.5049    0.0000 C   0  0
   -1.4339    7.9445    0.0000 O   0  0
   -2.8917    8.2976    0.0000 C   0  0
   -2.0458    5.4204    0.0000 C   0  0
   -1.2990   -0.7500    0.0000 C   0  0
    0.0000   -1.5000    0.0000 C   0  0
    0.0000   -3.0000    0.0000 O   0  0
  1  2  1  0
  2  3  1  0
  3  4  2  0
  4  5  1  0
  5  6  2  0
  6  7  1  0
  7  8  1  0
  8  9  2  0
  9 10  1  0
 10 11  2  0
 11  7  1  0
 11 12  1  0
 12 13  2  0
 13 14  1  0
 14 15  1  0
 15 16  1  0
 14 17  2  0
 17 18  1  0
 18 19  1  0
 17 20  1  0
 20 21  1  0
 21 22  1  0
 20 23  2  0
 23 12  1  0
  6 24  1  0
 24 25  2  0
 25  3  1  0
 25 26  1  0
M  END
> <Smiles>
COc1ccc(-n2cnnc2-c2cc(OC)c(OC)c(OC)c2)cc1O

> <ID>
CHEMBL376708

> <standard_value>
371.54

> <IC50_uM>
0.37154

> <Activity>
Yes

> <pIC50>
6.429994423

> <BCI>
1

$$$$

  SciTegic03012415362D

 35 37  0  0  1  0            999 V2000
    1.5064   -5.1893    0.0000 C   0  0
    2.2542   -3.8890    0.0000 C   0  0
    1.5012   -2.5908    0.0000 C   0  0
    0.0004   -2.5928    0.0000 C   0  0
   -0.7526   -1.2945    0.0000 C   0  0  2  0  0  0
   -2.2578   -1.2945    0.0000 C   0  0
   -3.0105    0.0000    0.0000 C   0  0  1  0  0  0
   -4.3050    0.7526    0.0000 C   0  0
   -4.3050   -0.7526    0.0000 O   0  0
   -2.2578    1.2945    0.0000 C   0  0
   -0.7526    1.2945    0.0000 C   0  0
    0.7470    1.2612    0.0000 C   0  0
   -1.5350    2.5743    0.0000 C   0  0
    0.0000    0.0000    0.0000 O   0  0
    3.7550   -3.8870    0.0000 C   0  0
    4.5080   -5.1852    0.0000 C   0  0
    6.0088   -5.1832    0.0000 C   0  0  1  0  0  0
    6.7633   -6.4797    0.0000 C   0  0
    8.2633   -6.4746    0.0000 C   0  0
    9.0089   -5.1730    0.0000 C   0  0  1  0  0  0
   10.5097   -5.1710    0.0000 N   0  0
   11.2627   -6.4693    0.0000 C   0  0
   10.5149   -7.7695    0.0000 O   0  0
   12.7635   -6.4673    0.0000 C   0  0
   13.5165   -7.7655    0.0000 C   0  0
   12.7695   -9.0672    0.0000 C   0  0  2  0  0  0
   11.2695   -9.0707    0.0000 C   0  0
   13.5225  -10.3655    0.0000 O   0  0
   12.7754  -11.6672    0.0000 C   0  0
   11.2754  -11.6706    0.0000 O   0  0
   13.5284  -12.9655    0.0000 C   0  0
   12.7818  -14.2665    0.0000 C   0  0
   15.0284  -12.9621    0.0000 C   0  0
    8.2545   -3.8765    0.0000 C   0  0
    6.7545   -3.8816    0.0000 C   0  0
  1  2  1  0
  2  3  1  0
  3  4  2  0
  5  4  1  6
  5  6  1  0
  7  6  1  6
  7  8  1  0
  8  9  1  0
  9  7  1  0
  7 10  1  0
 10 11  1  0
 11 12  1  0
 11 13  1  0
 11 14  1  0
 14  5  1  0
  2 15  2  0
 15 16  1  0
 17 16  1  6
 17 18  1  0
 18 19  1  0
 19 20  1  0
 20 21  1  6
 21 22  1  0
 22 23  2  0
 22 24  1  0
 24 25  2  0
 25 26  1  0
 26 27  1  1
 26 28  1  0
 28 29  1  0
 29 30  2  0
 29 31  1  0
 31 32  1  0
 31 33  1  0
 20 34  1  0
 34 35  1  0
 35 17  1  0
M  END
> <Smiles>
CC(/C=C/[C@@H]1C[C@]2(CO2)CC(C)(C)O1)=C\C[C@H]1CC[C@@H](NC(=O)/C=C\[C@H](C)OC(=O)C(C)C)CC1

> <ID>
CHEMBL565493

> <standard_value>
371.54

> <IC50_uM>
0.37154

> <Activity>
Yes

> <pIC50>
6.429994423

> <BCI>
1

$$$$

  SciTegic03012415362D

 28 31  0  0  0  0            999 V2000
    2.5951   -3.0031    0.0000 C   0  0
    2.5973   -1.5031    0.0000 O   0  0
    1.2990   -0.7500    0.0000 C   0  0
    1.2990    0.7500    0.0000 C   0  0
    0.0000    1.5000    0.0000 C   0  0
   -1.2990    0.7500    0.0000 C   0  0
   -1.2990   -0.7500    0.0000 C   0  0
    0.0000   -1.5000    0.0000 C   0  0
   -2.5981   -1.5000    0.0000 O   0  0
   -3.8971   -0.7500    0.0000 C   0  0
   -3.8971    0.7500    0.0000 C   0  0
   -5.3229    1.2135    0.0000 C   0  0
   -5.7863    2.6401    0.0000 O   0  0
   -6.2045    0.0000    0.0000 O   0  0
   -5.3229   -1.2135    0.0000 C   0  0
   -2.5981    1.5000    0.0000 C   0  0  3  0  0  0
   -2.5981    3.0007    0.0000 C   0  0
   -3.8959    3.7529    0.0000 C   0  0
   -3.8936    5.2529    0.0000 C   0  0
   -5.1937    6.0027    0.0000 O   0  0
   -6.4928    5.2529    0.0000 C   0  0
   -2.5933    6.0009    0.0000 C   0  0
   -2.5879    7.5017    0.0000 O   0  0
   -1.2866    8.2478    0.0000 C   0  0
   -1.2955    5.2488    0.0000 C   0  0
    0.0070    5.9945    0.0000 O   0  0
    1.3038    5.2406    0.0000 C   0  0
   -1.2979    3.7488    0.0000 C   0  0
  1  2  1  0
  2  3  1  0
  3  4  2  0
  4  5  1  0
  5  6  2  0
  6  7  1  0
  7  8  2  0
  8  3  1  0
  7  9  1  0
  9 10  1  0
 10 11  2  0
 11 12  1  0
 12 13  2  0
 12 14  1  0
 14 15  1  0
 15 10  1  0
 11 16  1  0
 16  6  1  0
 16 17  1  4
 17 18  2  0
 18 19  1  0
 19 20  1  0
 20 21  1  0
 19 22  2  0
 22 23  1  0
 23 24  1  0
 22 25  1  0
 25 26  1  0
 26 27  1  0
 25 28  2  0
 28 17  1  0
M  END
> <Smiles>
COc1ccc2c(c1)OC1=C(C(=O)OC1)C2c1cc(OC)c(OC)c(OC)c1

> <ID>
CHEMBL2010920

> <standard_value>
376

> <IC50_uM>
0.376

> <Activity>
Yes

> <pIC50>
6.424812155

> <BCI>
1

$$$$

  SciTegic03012415362D

 27 28  0  0  1  0            999 V2000
   -2.7806   -6.9499    0.0000 C   0  0
   -1.6250   -5.9935    0.0000 O   0  0
   -1.8747   -4.5136    0.0000 C   0  0
   -3.2806   -3.9906    0.0000 O   0  0
   -0.7185   -3.5567    0.0000 C   0  0
   -0.9682   -2.0768    0.0000 S   0  0  3  0  0  0
   -2.3741   -1.5538    0.0000 O   0  0
    0.1900   -1.1200    0.0000 C   0  0  2  0  0  0
    1.3300   -1.6300    0.0000 C   0  0
    2.3100   -1.1700    0.0000 C   0  0
    3.5183   -2.0588    0.0000 O   0  0
    2.5200    0.3600    0.0000 O   0  0
    4.1500    0.6800    0.0000 C   0  0  1  0  0  0
    5.3192   -0.2597    0.0000 C   0  0
    4.1100    2.4200    0.0000 C   0  0
    2.6000    2.8000    0.0000 C   0  0
    2.3100    4.3400    0.0000 C   0  0
    0.3300    4.3600    0.0000 C   0  0
    0.0000    2.8600    0.0000 C   0  0
   -1.5600    2.3300    0.0000 C   0  0  2  0  0  0
   -3.0100    2.8100    0.0000 C   0  0
   -3.9100    1.5700    0.0000 C   0  0  2  0  0  0
   -5.4100    1.5671    0.0000 O   0  0
   -3.0100    0.3400    0.0000 C   0  0
   -1.5600    0.8100    0.0000 C   0  0  1  0  0  0
    0.0000    0.3600    0.0000 C   0  0  2  0  0  0
    1.1387    1.3364    0.0000 O   0  0
  1  2  1  0
  2  3  1  0
  3  4  2  0
  3  5  1  0
  6  5  1  4
  6  7  2  0
  8  6  1  1
  8  9  1  0
  9 10  1  0
 10 11  2  0
 10 12  1  0
 12 13  1  0
 13 14  1  6
 13 15  1  0
 15 16  1  0
 16 17  1  0
 17 18  1  0
 18 19  2  0
 20 19  1  1
 20 21  1  0
 21 22  1  0
 22 23  1  1
 22 24  1  0
 25 24  1  6
 25 20  1  0
 25 26  1  0
 26  8  1  0
 26 27  1  6
M  END
> <Smiles>
COC(=O)C[S+]([O-])[C@@H]1CC(=O)O[C@@H](C)CCC/C=C/[C@@H]2C[C@H](O)C[C@H]2[C@@H]1O

> <ID>
CHEMBL326589

> <standard_value>
380

> <IC50_uM>
0.38

> <Activity>
Yes

> <pIC50>
6.420216403

> <BCI>
1

$$$$

  SciTegic03012415362D

 22 25  0  0  0  0            999 V2000
    2.5981   -1.5000    0.0000 N   0  0
    1.2990   -0.7500    0.0000 C   0  0
    1.2990    0.7500    0.0000 N   0  0
    0.0000    1.5000    0.0000 C   0  0
   -1.2990    0.7500    0.0000 C   0  0
   -1.2990   -0.7500    0.0000 C   0  0
   -2.5972   -1.5031    0.0000 N   0  0
   -2.5951   -3.0039    0.0000 C   0  0
   -3.8915   -3.7585    0.0000 C   0  0
   -3.8863   -5.2585    0.0000 C   0  0
   -2.5847   -6.0040    0.0000 C   0  0
   -2.5795   -7.5040    0.0000 Cl  0  0
   -1.2883   -5.2495    0.0000 C   0  0
   -1.2935   -3.7495    0.0000 C   0  0
    0.0000   -1.5000    0.0000 N   0  0
   -2.4133    1.7530    0.0000 C   0  0
   -3.9040    1.5956    0.0000 C   0  0
   -4.7857    2.8092    0.0000 C   0  0
   -4.1756    4.1795    0.0000 C   0  0
   -2.6838    4.3363    0.0000 C   0  0
   -1.8032    3.1233    0.0000 C   0  0
   -0.3115    2.9665    0.0000 C   0  0
  1  2  1  0
  2  3  2  0
  3  4  1  0
  4  5  2  0
  5  6  1  0
  6  7  1  0
  7  8  1  0
  8  9  2  0
  9 10  1  0
 10 11  2  0
 11 12  1  0
 11 13  1  0
 13 14  2  0
 14  8  1  0
  6 15  2  0
 15  2  1  0
  5 16  1  0
 16 17  2  0
 17 18  1  0
 18 19  2  0
 19 20  1  0
 20 21  2  0
 21 16  1  0
 21 22  1  0
 22  4  1  0
M  END
> <Smiles>
Nc1nc2c(c(Nc3ccc(Cl)cc3)n1)-c1ccccc1C2

> <ID>
CHEMBL2047247

> <standard_value>
381

> <IC50_uM>
0.381

> <Activity>
Yes

> <pIC50>
6.419075024

> <BCI>
1

$$$$

  SciTegic03012415362D

 35 39  0  0  0  0            999 V2000
    3.8983   -0.7459    0.0000 C   0  0
    2.6003   -1.4977    0.0000 O   0  0
    1.2990   -0.7500    0.0000 C   0  0
    1.2990    0.7500    0.0000 C   0  0
    0.0000    1.5000    0.0000 C   0  0
    0.0000    3.0008    0.0000 C   0  0
   -1.2149    3.8587    0.0000 N   0  0
   -0.7536    5.2860    0.0000 N   0  0
   -1.6377    6.4987    0.0000 C   0  0
   -3.1320    6.4515    0.0000 C   0  0
   -3.9219    7.7267    0.0000 C   0  0
   -3.2125    9.0483    0.0000 C   0  0
   -1.7132    9.0948    0.0000 C   0  0
   -1.0007   10.4157    0.0000 N   0  0
    0.4995   10.4601    0.0000 C   0  0
    1.2871    9.1836    0.0000 O   0  0
    1.2120   11.7810    0.0000 C   0  0
    2.7113   11.8276    0.0000 C   0  0
    3.4207   13.1492    0.0000 C   0  0
    2.6308   14.4244    0.0000 C   0  0
    1.1315   14.3780    0.0000 C   0  0
    0.4221   13.0563    0.0000 C   0  0
   -0.9233    7.8196    0.0000 C   0  0
    0.7463    5.2884    0.0000 C   0  0
    1.2121    3.8625    0.0000 C   0  0
    2.6374    3.3926    0.0000 C   0  0
    3.0562    1.9577    0.0000 C   0  0
    4.5135    1.6025    0.0000 C   0  0
    5.5498    2.6871    0.0000 N   0  0
    5.1286    4.1268    0.0000 C   0  0
    3.6713    4.4819    0.0000 C   0  0
   -1.2990    0.7500    0.0000 C   0  0
   -1.2990   -0.7500    0.0000 C   0  0
    0.0000   -1.5000    0.0000 C   0  0
    0.0000   -3.0000    0.0000 Cl  0  0
  1  2  1  0
  2  3  1  0
  3  4  2  0
  4  5  1  0
  5  6  1  0
  6  7  2  0
  7  8  1  0
  8  9  1  0
  9 10  2  0
 10 11  1  0
 11 12  2  0
 12 13  1  0
 13 14  1  0
 14 15  1  0
 15 16  2  0
 15 17  1  0
 17 18  2  0
 18 19  1  0
 19 20  2  0
 20 21  1  0
 21 22  2  0
 22 17  1  0
 13 23  2  0
 23  9  1  0
  8 24  1  0
 24 25  2  0
 25  6  1  0
 25 26  1  0
 26 27  2  0
 27 28  1  0
 28 29  2  0
 29 30  1  0
 30 31  2  0
 31 26  1  0
  5 32  2  0
 32 33  1  0
 33 34  2  0
 34  3  1  0
 34 35  1  0
M  END
> <Smiles>
COc1cc(-c2nn(-c3cccc(NC(=O)c4ccccc4)c3)cc2-c2ccncc2)ccc1Cl

> <ID>
CHEMBL2441792

> <standard_value>
387

> <IC50_uM>
0.387

> <Activity>
Yes

> <pIC50>
6.412289035

> <BCI>
1

$$$$

  SciTegic03012415362D

 26 29  0  0  0  0            999 V2000
    2.5951   -3.0031    0.0000 C   0  0
    2.5973   -1.5031    0.0000 O   0  0
    1.2990   -0.7500    0.0000 C   0  0
    1.2990    0.7500    0.0000 C   0  0
    0.0000    1.5000    0.0000 C   0  0
   -1.2990    0.7500    0.0000 C   0  0
   -1.2990   -0.7500    0.0000 C   0  0
    0.0000   -1.5000    0.0000 C   0  0
   -2.7248   -1.2135    0.0000 C   0  0
   -3.1882   -2.6402    0.0000 O   0  0
   -3.6065    0.0000    0.0000 C   0  0
   -2.7248    1.2135    0.0000 C   0  0
   -3.3339    2.5831    0.0000 N   0  0
   -2.4537    3.7988    0.0000 C   0  0
   -3.0656    5.1692    0.0000 C   0  0
   -2.1854    6.3848    0.0000 C   0  0
   -2.7969    7.7545    0.0000 N   0  0
   -4.8257    2.7399    0.0000 C   0  0
   -5.4358    4.1102    0.0000 O   0  0
   -5.7073    1.5263    0.0000 C   0  0
   -7.1991    1.6831    0.0000 C   0  0
   -8.0808    0.4696    0.0000 C   0  0
   -9.5726    0.6264    0.0000 I   0  0
   -7.4707   -0.9007    0.0000 C   0  0
   -5.9789   -1.0575    0.0000 C   0  0
   -5.0972    0.1560    0.0000 C   0  0
  1  2  1  0
  2  3  1  0
  3  4  2  0
  4  5  1  0
  5  6  2  0
  6  7  1  0
  7  8  2  0
  8  3  1  0
  7  9  1  0
  9 10  2  0
  9 11  1  0
 11 12  2  0
 12  6  1  0
 12 13  1  0
 13 14  1  0
 14 15  1  0
 15 16  1  0
 16 17  1  0
 13 18  1  0
 18 19  2  0
 18 20  1  0
 20 21  2  0
 21 22  1  0
 22 23  1  0
 22 24  2  0
 24 25  1  0
 25 26  2  0
 26 11  1  0
 26 20  1  0
M  END
> <Smiles>
COc1ccc2c(c1)C(=O)c1c-2n(CCCN)c(=O)c2cc(I)ccc12

> <ID>
CHEMBL2312906

> <standard_value>
390

> <IC50_uM>
0.39

> <Activity>
Yes

> <pIC50>
6.408935393

> <BCI>
1

$$$$

  SciTegic03012415362D

 26 29  0  0  0  0            999 V2000
    3.8805   -1.4410    0.0000 O   0  0
    2.4133   -1.7530    0.0000 C   0  0
    1.2990   -0.7500    0.0000 C   0  0
    1.2990    0.7500    0.0000 C   0  0
    0.0000    1.5000    0.0000 C   0  0
   -1.2990    0.7500    0.0000 C   0  0
   -1.2990   -0.7500    0.0000 C   0  0
    0.0000   -1.5000    0.0000 C   0  0
    0.3114   -2.9665    0.0000 C   0  0
    1.8032   -3.1233    0.0000 C   0  0
    2.4135   -4.4923    0.0000 C   0  0
    3.9053   -4.6492    0.0000 C   0  0
    4.5154   -6.0195    0.0000 C   0  0
    3.6337   -7.2330    0.0000 C   0  0
    4.2413   -8.6053    0.0000 N   0  3
    3.3579   -9.8176    0.0000 O   0  0
    5.7328   -8.7647    0.0000 O   0  5
    2.1419   -7.0762    0.0000 C   0  0
    1.5318   -5.7059    0.0000 C   0  0
    0.0400   -5.5491    0.0000 C   0  0
   -0.8417   -6.7626    0.0000 O   0  0
   -0.5701   -4.1788    0.0000 N   0  0
   -2.0630   -4.0243    0.0000 C   0  0
   -2.9439   -5.2394    0.0000 C   0  0
   -4.4368   -5.0850    0.0000 C   0  0
   -5.3172   -6.2994    0.0000 O   0  0
  1  2  2  0
  2  3  1  0
  3  4  2  0
  4  5  1  0
  5  6  2  0
  6  7  1  0
  7  8  2  0
  8  3  1  0
  8  9  1  0
  9 10  2  0
 10  2  1  0
 10 11  1  0
 11 12  2  0
 12 13  1  0
 13 14  2  0
 14 15  1  0
 15 16  2  0
 15 17  1  0
 14 18  1  0
 18 19  2  0
 19 11  1  0
 19 20  1  0
 20 21  2  0
 20 22  1  0
 22  9  1  0
 22 23  1  0
 23 24  1  0
 24 25  1  0
 25 26  1  0
M  CHG  2  15   1  17  -1
M  END
> <Smiles>
O=C1c2ccccc2-c2c1c1ccc([N+](=O)[O-])cc1c(=O)n2CCCO

> <ID>
CHEMBL2172300

> <standard_value>
390

> <IC50_uM>
0.39

> <Activity>
Yes

> <pIC50>
6.408935393

> <BCI>
1

$$$$

  SciTegic03012415362D

 22 25  0  0  0  0            999 V2000
    5.2003   -1.4932    0.0000 C   0  0
    3.8990   -0.7455    0.0000 N   0  0
    2.6003   -1.4977    0.0000 N   0  0
    1.2990   -0.7500    0.0000 C   0  0
    1.2990    0.7500    0.0000 N   0  0
    0.0000    1.5000    0.0000 C   0  0
   -1.2990    0.7500    0.0000 N   0  0
   -1.2990   -0.7500    0.0000 C   0  0
   -2.4133   -1.7530    0.0000 S   0  0
   -1.8032   -3.1233    0.0000 C   0  0
   -0.3114   -2.9665    0.0000 C   0  0
    0.0000   -1.5000    0.0000 C   0  0
    0.5701   -4.1788    0.0000 C   0  0
   -0.0400   -5.5491    0.0000 C   0  0
   -1.5318   -5.7059    0.0000 C   0  0
   -2.4134   -4.4924    0.0000 C   0  0
    6.4990   -0.7409    0.0000 C   0  0
    7.8007   -1.4864    0.0000 C   0  0
    9.0971   -0.7319    0.0000 C   0  0
    9.0919    0.7681    0.0000 C   0  0
    7.7903    1.5136    0.0000 C   0  0
    6.4939    0.7591    0.0000 N   0  0
  1  2  2  0
  2  3  1  0
  3  4  1  0
  4  5  2  0
  5  6  1  0
  6  7  2  0
  7  8  1  0
  8  9  1  0
  9 10  1  0
 10 11  2  0
 11 12  1  0
 12  4  1  0
 12  8  2  0
 11 13  1  0
 13 14  1  0
 14 15  1  0
 15 16  1  0
 16 10  1  0
  1 17  1  0
 17 18  2  0
 18 19  1  0
 19 20  2  0
 20 21  1  0
 21 22  2  0
 22 17  1  0
M  END
> <Smiles>
C(=N/Nc1ncnc2sc3c(c12)CCCC3)\c1ccccn1

> <ID>
CHEMBL1090250

> <standard_value>
391

> <IC50_uM>
0.391

> <Activity>
Yes

> <pIC50>
6.407823243

> <BCI>
1

$$$$

  SciTegic03012415362D

 21 22  0  0  0  0            999 V2000
    5.1873   -7.5109    0.0000 C   0  0
    5.1894   -6.0109    0.0000 C   0  0
    3.8912   -5.2578    0.0000 C   0  0
    3.8933   -3.7570    0.0000 C   0  0
    2.5951   -3.0039    0.0000 C   0  0
    2.5973   -1.5031    0.0000 S   0  0
    1.2990   -0.7500    0.0000 C   0  0
    1.2990    0.7500    0.0000 C   0  0
    0.0000    1.5000    0.0000 C   0  0
   -1.2990    0.7500    0.0000 C   0  0
   -2.7248    1.2135    0.0000 N   0  0
   -3.6065    0.0000    0.0000 C   0  0
   -5.1047   -0.0031    0.0000 N   0  0
   -5.8532   -1.3040    0.0000 C   0  0
   -5.1009   -2.6017    0.0000 O   0  0
   -7.3541   -1.3071    0.0000 O   0  0
   -8.1026   -2.6079    0.0000 C   0  0
   -9.6026   -2.6111    0.0000 C   0  0
   -2.7248   -1.2135    0.0000 S   0  0
   -1.2990   -0.7500    0.0000 C   0  0
    0.0000   -1.5000    0.0000 C   0  0
  1  2  1  0
  2  3  1  0
  3  4  1  0
  4  5  1  0
  5  6  1  0
  6  7  1  0
  7  8  2  0
  8  9  1  0
  9 10  2  0
 10 11  1  0
 11 12  2  0
 12 13  1  0
 13 14  1  0
 14 15  2  0
 14 16  1  0
 16 17  1  0
 17 18  1  0
 12 19  1  0
 19 20  1  0
 20 10  1  0
 20 21  2  0
 21  7  1  0
M  END
> <Smiles>
CCCCCSc1ccc2nc(NC(=O)OCC)sc2c1

> <ID>
CHEMBL4282691

> <standard_value>
400

> <IC50_uM>
0.4

> <Activity>
Yes

> <pIC50>
6.397940009

> <BCI>
1

$$$$

  SciTegic03012415362D

 26 29  0  0  0  0            999 V2000
    7.0592   -9.6124    0.0000 C   0  0
    6.3091   -8.3134    0.0000 C   0  0
    7.0591   -7.0143    0.0000 C   0  0
    6.3090   -5.7153    0.0000 C   0  0
    4.8090   -5.7153    0.0000 C   0  0
    4.0559   -4.4171    0.0000 N   0  0
    2.5551   -4.4192    0.0000 C   0  0
    1.8073   -5.7196    0.0000 O   0  0
    1.8032   -3.1233    0.0000 C   0  0
    2.4133   -1.7530    0.0000 S   0  0
    1.2990   -0.7500    0.0000 C   0  0
    1.2990    0.7500    0.0000 N   0  0
    0.0000    1.5000    0.0000 C   0  0
   -1.2990    0.7500    0.0000 C   0  0
   -1.2990   -0.7500    0.0000 C   0  0
    0.0000   -1.5000    0.0000 C   0  0
    0.3114   -2.9665    0.0000 C   0  0
   -0.6923   -4.0811    0.0000 N   0  0
   -2.5981    1.5000    0.0000 C   0  0
   -3.8971    0.7500    0.0000 O   0  0
   -2.5981    3.0000    0.0000 C   0  0
   -1.2991    3.7500    0.0000 C   0  0
    0.0000    3.0000    0.0000 C   0  0
    4.0591   -7.0144    0.0000 C   0  0
    4.8091   -8.3134    0.0000 C   0  0
    4.0592   -9.6125    0.0000 C   0  0
  1  2  1  0
  2  3  2  0
  3  4  1  0
  4  5  2  0
  5  6  1  0
  6  7  1  0
  7  8  2  0
  7  9  1  0
  9 10  1  0
 10 11  1  0
 11 12  2  0
 12 13  1  0
 13 14  2  0
 14 15  1  0
 15 16  2  0
 16 11  1  0
 16 17  1  0
 17  9  2  0
 17 18  1  0
 14 19  1  0
 19 20  2  0
 19 21  1  0
 21 22  1  0
 22 23  1  0
 23 13  1  0
  5 24  1  0
 24 25  2  0
 25  2  1  0
 25 26  1  0
M  END
> <Smiles>
Cc1ccc(NC(=O)c2sc3nc4c(cc3c2N)C(=O)CCC4)cc1C

> <ID>
CHEMBL4752336

> <standard_value>
404

> <IC50_uM>
0.404

> <Activity>
Yes

> <pIC50>
6.393618635

> <BCI>
1

$$$$

  SciTegic03012415362D

 28 29  0  0  1  0            999 V2000
   -2.5317   -8.4295    0.0000 C   0  0
   -2.7812   -6.9504    0.0000 O   0  0
   -1.6250   -5.9935    0.0000 C   0  0
   -0.2192   -6.5165    0.0000 O   0  0
   -1.8747   -4.5136    0.0000 C   0  0
   -0.7185   -3.5567    0.0000 C   0  0
   -0.9682   -2.0768    0.0000 S   0  0  3  0  0  0
   -2.3741   -1.5538    0.0000 O   0  0
    0.1900   -1.1200    0.0000 C   0  0  2  0  0  0
    1.3300   -1.6300    0.0000 C   0  0
    2.3100   -1.1700    0.0000 C   0  0
    3.5183   -2.0588    0.0000 O   0  0
    2.5200    0.3600    0.0000 O   0  0
    4.1500    0.6800    0.0000 C   0  0  1  0  0  0
    5.3192   -0.2597    0.0000 C   0  0
    4.1100    2.4200    0.0000 C   0  0
    2.6000    2.8000    0.0000 C   0  0
    2.3100    4.3400    0.0000 C   0  0
    0.3300    4.3600    0.0000 C   0  0
    0.0000    2.8600    0.0000 C   0  0
   -1.5600    2.3300    0.0000 C   0  0  2  0  0  0
   -3.0100    2.8100    0.0000 C   0  0
   -3.9100    1.5700    0.0000 C   0  0  2  0  0  0
   -5.4100    1.5671    0.0000 O   0  0
   -3.0100    0.3400    0.0000 C   0  0
   -1.5600    0.8100    0.0000 C   0  0  1  0  0  0
    0.0000    0.3600    0.0000 C   0  0  2  0  0  0
    1.1387    1.3364    0.0000 O   0  0
  1  2  1  0
  2  3  1  0
  3  4  2  0
  3  5  1  0
  5  6  1  0
  7  6  1  4
  7  8  2  0
  9  7  1  1
  9 10  1  0
 10 11  1  0
 11 12  2  0
 11 13  1  0
 13 14  1  0
 14 15  1  6
 14 16  1  0
 16 17  1  0
 17 18  1  0
 18 19  1  0
 19 20  2  0
 21 20  1  1
 21 22  1  0
 22 23  1  0
 23 24  1  1
 23 25  1  0
 26 25  1  6
 26 21  1  0
 26 27  1  0
 27  9  1  0
 27 28  1  6
M  END
> <Smiles>
COC(=O)CC[S+]([O-])[C@@H]1CC(=O)O[C@@H](C)CCC/C=C/[C@@H]2C[C@H](O)C[C@H]2[C@@H]1O

> <ID>
CHEMBL419937

> <standard_value>
410

> <IC50_uM>
0.41

> <Activity>
Yes

> <pIC50>
6.387216143

> <BCI>
1

$$$$

  SciTegic03012415362D

 30 32  0  0  1  0            999 V2000
    1.4465   -8.5129    0.0000 C   0  0
    0.0394   -7.9934    0.0000 O   0  0
   -0.2154   -6.5143    0.0000 C   0  0
   -1.6218   -5.9928    0.0000 C   0  0
   -1.8734   -4.5141    0.0000 C   0  0
   -0.7185   -3.5567    0.0000 C   0  0
   -0.9682   -2.0768    0.0000 S   0  0  3  0  0  0
   -2.3741   -1.5538    0.0000 O   0  0
    0.1900   -1.1200    0.0000 C   0  0  2  0  0  0
    1.3300   -1.6300    0.0000 C   0  0
    2.3100   -1.1700    0.0000 C   0  0
    3.5183   -2.0588    0.0000 O   0  0
    2.5200    0.3600    0.0000 O   0  0
    4.1500    0.6800    0.0000 C   0  0  1  0  0  0
    5.3192   -0.2597    0.0000 C   0  0
    4.1100    2.4200    0.0000 C   0  0
    2.6000    2.8000    0.0000 C   0  0
    2.3100    4.3400    0.0000 C   0  0
    0.3300    4.3600    0.0000 C   0  0
    0.0000    2.8600    0.0000 C   0  0
   -1.5600    2.3300    0.0000 C   0  0  2  0  0  0
   -3.0100    2.8100    0.0000 C   0  0
   -3.9100    1.5700    0.0000 C   0  0  2  0  0  0
   -5.4100    1.5671    0.0000 O   0  0
   -3.0100    0.3400    0.0000 C   0  0
   -1.5600    0.8100    0.0000 C   0  0  1  0  0  0
    0.0000    0.3600    0.0000 C   0  0  2  0  0  0
    1.1387    1.3364    0.0000 O   0  0
    0.6879   -4.0783    0.0000 C   0  0
    0.9395   -5.5571    0.0000 C   0  0
  1  2  1  0
  2  3  1  0
  3  4  2  0
  4  5  1  0
  5  6  2  0
  7  6  1  4
  7  8  2  0
  9  7  1  1
  9 10  1  0
 10 11  1  0
 11 12  2  0
 11 13  1  0
 13 14  1  0
 14 15  1  6
 14 16  1  0
 16 17  1  0
 17 18  1  0
 18 19  1  0
 19 20  2  0
 21 20  1  1
 21 22  1  0
 22 23  1  0
 23 24  1  1
 23 25  1  0
 26 25  1  6
 26 21  1  0
 26 27  1  0
 27  9  1  0
 27 28  1  6
  6 29  1  0
 29 30  2  0
 30  3  1  0
M  END
> <Smiles>
COc1ccc([S+]([O-])[C@@H]2CC(=O)O[C@@H](C)CCC/C=C/[C@@H]3C[C@H](O)C[C@H]3[C@@H]2O)cc1

> <ID>
CHEMBL326974

> <standard_value>
410

> <IC50_uM>
0.41

> <Activity>
Yes

> <pIC50>
6.387216143

> <BCI>
1

$$$$

  SciTegic03012415362D

 32 36  0  0  0  0            999 V2000
    5.1873   -7.5109    0.0000 C   0  0
    5.1894   -6.0109    0.0000 C   0  0
    3.8912   -5.2578    0.0000 C   0  0
    3.8933   -3.7570    0.0000 C   0  0
    2.5951   -3.0039    0.0000 C   0  0
    2.5973   -1.5031    0.0000 C   0  0
    1.2990   -0.7500    0.0000 C   0  0
    1.2990    0.7500    0.0000 C   0  0
    2.5981    1.5000    0.0000 C   0  0
    3.8994    0.7523    0.0000 O   0  0
    5.1973    1.5042    0.0000 C   0  0
    2.5981    3.0000    0.0000 C   0  0
    3.8963    3.7531    0.0000 O   0  0
    3.8941    5.2531    0.0000 C   0  0
    1.2990    3.7500    0.0000 C   0  0
    0.0000    3.0000    0.0000 C   0  0
   -1.2991    3.7500    0.0000 Br  0  0
    0.0000    1.5000    0.0000 C   0  0
   -1.2990    0.7500    0.0000 C   0  0
   -1.2990   -0.7500    0.0000 C   0  0
    0.0000   -1.5000    0.0000 N   0  3
    0.0000   -3.0000    0.0000 C   0  0
   -1.2990   -3.7500    0.0000 C   0  0
   -2.5981   -3.0000    0.0000 C   0  0
   -3.8971   -3.7500    0.0000 C   0  0
   -5.1961   -3.0000    0.0000 C   0  0
   -5.1962   -1.5000    0.0000 C   0  0
   -3.8971   -0.7500    0.0000 C   0  0
   -2.5981   -1.5000    0.0000 C   0  0
   -6.6219   -1.0365    0.0000 O   0  0
   -7.5036   -2.2500    0.0000 C   0  0
   -6.6219   -3.4635    0.0000 O   0  0
  1  2  1  0
  2  3  1  0
  3  4  1  0
  4  5  1  0
  5  6  1  0
  6  7  1  0
  7  8  2  0
  8  9  1  0
  9 10  1  0
 10 11  1  0
  9 12  2  0
 12 13  1  0
 13 14  1  0
 12 15  1  0
 15 16  2  0
 16 17  1  0
 16 18  1  0
 18  8  1  0
 18 19  2  0
 19 20  1  0
 20 21  2  0
 21  7  1  0
 21 22  1  0
 22 23  1  0
 23 24  1  0
 24 25  2  0
 25 26  1  0
 26 27  2  0
 27 28  1  0
 28 29  2  0
 29 24  1  0
 29 20  1  0
 27 30  1  0
 30 31  1  0
 31 32  1  0
 32 26  1  0
M  CHG  1  21   1
M  END
> <Smiles>
CCCCCCc1c2c(OC)c(OC)cc(Br)c2cc2[n+]1CCc1cc3c(cc1-2)OCO3.[Cl-]

> <ID>
CHEMBL465386

> <standard_value>
410

> <IC50_uM>
0.41

> <Activity>
Yes

> <pIC50>
6.387216143

> <BCI>
1

> <RemovedSalts>
Cl-

$$$$

  SciTegic03012415362D

 30 34  0  0  0  0            999 V2000
    3.8983   -0.7459    0.0000 C   0  0
    2.6003   -1.4977    0.0000 O   0  0
    1.2990   -0.7500    0.0000 C   0  0
    1.2990    0.7500    0.0000 C   0  0
    0.0000    1.5000    0.0000 C   0  0
    0.0000    3.0000    0.0000 C   0  0
   -1.2991    3.7500    0.0000 C   0  0
   -2.5981    3.0000    0.0000 N   0  0
   -3.8971    3.7500    0.0000 C   0  0
   -2.5981    1.5000    0.0000 C   0  0
   -3.8971    0.7500    0.0000 O   0  0
   -1.2990    0.7500    0.0000 C   0  0
   -1.2990   -0.7500    0.0000 C   0  0
    0.0000   -1.5000    0.0000 C   0  0
   -0.0031   -3.0008    0.0000 O   0  0
   -1.3032   -3.7490    0.0000 C   0  0
   -0.9876    5.2165    0.0000 C   0  0
   -1.8692    6.4288    0.0000 C   0  0
   -1.2591    7.7991    0.0000 C   0  0
    0.2327    7.9559    0.0000 C   0  0
    1.1144    6.7424    0.0000 C   0  0
    0.5042    5.3733    0.0000 C   0  0
    1.1143    4.0030    0.0000 C   0  0
    2.5791    3.6882    0.0000 C   0  0
    3.0405    2.2600    0.0000 C   0  0
    4.5078    1.9447    0.0000 C   0  0
    4.9690    0.5173    0.0000 N   0  0
    0.5446    9.4223    0.0000 O   0  0
   -0.7544   10.1723    0.0000 C   0  0
   -1.8691    9.1686    0.0000 O   0  0
  1  2  1  0
  2  3  1  0
  3  4  2  0
  4  5  1  0
  5  6  1  0
  6  7  2  0
  7  8  1  0
  8  9  1  0
  8 10  1  0
 10 11  2  0
 10 12  1  0
 12  5  2  0
 12 13  1  0
 13 14  2  0
 14  3  1  0
 14 15  1  0
 15 16  1  0
  7 17  1  0
 17 18  2  0
 18 19  1  0
 19 20  2  0
 20 21  1  0
 21 22  2  0
 22 17  1  0
 22 23  1  0
 23  6  1  0
 23 24  2  0
 24 25  1  0
 25 26  1  0
 26 27  1  0
 20 28  1  0
 28 29  1  0
 29 30  1  0
 30 19  1  0
M  END
> <Smiles>
COc1cc2c3c(n(C)c(=O)c2cc1OC)-c1cc2c(cc1/C3=C/CCN)OCO2

> <ID>
CHEMBL109363

> <standard_value>
420

> <IC50_uM>
0.42

> <Activity>
Yes

> <pIC50>
6.37675071

> <BCI>
1

$$$$

  SciTegic03012415362D

 40 41  0  0  1  0            999 V2000
    5.3192   -0.2597    0.0000 C   0  0
    4.1500    0.6800    0.0000 C   0  0  1  0  0  0
    2.5200    0.3600    0.0000 C   0  0
    2.3100   -1.1700    0.0000 C   0  0
    1.3300   -1.6300    0.0000 C   0  0
    0.1900   -1.1200    0.0000 C   0  0
    0.0000    0.3600    0.0000 C   0  0
   -1.5600    0.8100    0.0000 C   0  0  2  0  0  0
   -3.0100    0.3400    0.0000 C   0  0
   -3.9100    1.5700    0.0000 C   0  0  2  0  0  0
   -5.4100    1.5671    0.0000 O   0  0
   -3.0100    2.8100    0.0000 C   0  0
   -1.5600    2.3300    0.0000 C   0  0  1  0  0  0
    0.0000    2.8600    0.0000 C   0  0  2  0  0  0
    0.7452    2.1932    0.0000 O   0  0
    0.3300    4.3600    0.0000 C   0  0  2  0  0  0
   -0.6528    5.4848    0.0000 S   0  0
   -2.1250    5.1934    0.0000 C   0  0
   -3.1143    6.3220    0.0000 C   0  0  3  0  0  0
   -4.5865    6.0306    0.0000 N   0  0
   -5.5758    7.1592    0.0000 C   0  0
   -5.0928    8.5793    0.0000 O   0  0
   -7.0480    6.8677    0.0000 C   0  0
   -8.0373    7.9964    0.0000 C   0  0
   -9.5095    7.7049    0.0000 C   0  0  3  0  0  0
   -9.9925    6.2848    0.0000 N   0  0
  -10.4988    8.8336    0.0000 C   0  0
  -11.9702    8.5423    0.0000 O   0  0
  -10.0158   10.2537    0.0000 O   0  0
   -2.6339    7.7439    0.0000 C   0  0
   -1.1631    8.0382    0.0000 O   0  0
   -3.6244    8.8715    0.0000 N   0  0
   -3.1441   10.2934    0.0000 C   0  0
   -4.1346   11.4209    0.0000 C   0  0
   -3.6545   12.8420    0.0000 O   0  0
   -5.6054   11.1266    0.0000 O   0  0
    2.3100    4.3400    0.0000 C   0  0
    2.6000    2.8000    0.0000 C   0  0
    1.8719    2.1146    0.0000 O   0  0
    4.1100    2.4200    0.0000 O   0  0
  2  1  1  1
  2  3  1  0
  3  4  1  0
  4  5  1  0
  5  6  1  0
  6  7  2  0
  8  7  1  6
  8  9  1  0
  9 10  1  0
 10 11  1  6
 10 12  1  0
 13 12  1  1
 13  8  1  0
 13 14  1  0
 14 15  1  1
 14 16  1  0
 16 17  1  6
 17 18  1  0
 19 18  1  4
 19 20  1  0
 20 21  1  0
 21 22  2  0
 21 23  1  0
 23 24  1  0
 24 25  1  0
 25 26  1  4
 25 27  1  0
 27 28  2  0
 27 29  1  0
 19 30  1  0
 30 31  2  0
 30 32  1  0
 32 33  1  0
 33 34  1  0
 34 35  2  0
 34 36  1  0
 16 37  1  0
 37 38  1  0
 38 39  2  0
 38 40  1  0
 40  2  1  0
M  END
> <Smiles>
C[C@H]1CCC/C=C/[C@@H]2C[C@H](O)C[C@H]2[C@H](O)[C@H](SCC(NC(=O)CCC(N)C(=O)O)C(=O)NCC(=O)O)CC(=O)O1

> <ID>
CHEMBL112315

> <standard_value>
420

> <IC50_uM>
0.42

> <Activity>
Yes

> <pIC50>
6.37675071

> <BCI>
1

$$$$

  SciTegic03012415362D

 33 37  0  0  0  0            999 V2000
    3.8983   -0.7459    0.0000 C   0  0
    2.6003   -1.4977    0.0000 O   0  0
    1.2990   -0.7500    0.0000 C   0  0
    1.2990    0.7500    0.0000 C   0  0
    0.0000    1.5000    0.0000 C   0  0
    0.0000    3.0000    0.0000 C   0  0
   -1.2991    3.7500    0.0000 C   0  0
   -2.5981    3.0000    0.0000 N   0  0
   -3.8994    3.7477    0.0000 C   0  0
   -5.1981    2.9954    0.0000 C   0  0
   -6.4994    3.7432    0.0000 C   0  0
   -7.7981    2.9909    0.0000 N   0  0
   -9.0994    3.7386    0.0000 C   0  0
  -10.3980    2.9864    0.0000 C   0  0
  -11.6986    3.7337    0.0000 N   0  0
   -2.5981    1.5000    0.0000 C   0  0
   -3.8971    0.7500    0.0000 O   0  0
   -1.2990    0.7500    0.0000 C   0  0
   -1.2990   -0.7500    0.0000 C   0  0
    0.0000   -1.5000    0.0000 C   0  0
   -0.0031   -3.0008    0.0000 O   0  0
   -1.3032   -3.7490    0.0000 C   0  0
   -0.9876    5.2165    0.0000 C   0  0
   -1.8692    6.4288    0.0000 C   0  0
   -1.2591    7.7991    0.0000 C   0  0
    0.2327    7.9559    0.0000 C   0  0
    1.1144    6.7424    0.0000 C   0  0
    0.5042    5.3733    0.0000 C   0  0
    1.1143    4.0030    0.0000 C   0  0
    2.5815    3.6910    0.0000 O   0  0
    0.5446    9.4223    0.0000 O   0  0
   -0.7544   10.1723    0.0000 C   0  0
   -1.8691    9.1686    0.0000 O   0  0
  1  2  1  0
  2  3  1  0
  3  4  2  0
  4  5  1  0
  5  6  1  0
  6  7  2  0
  7  8  1  0
  8  9  1  0
  9 10  1  0
 10 11  1  0
 11 12  1  0
 12 13  1  0
 13 14  1  0
 14 15  1  0
  8 16  1  0
 16 17  2  0
 16 18  1  0
 18  5  2  0
 18 19  1  0
 19 20  2  0
 20  3  1  0
 20 21  1  0
 21 22  1  0
  7 23  1  0
 23 24  2  0
 24 25  1  0
 25 26  2  0
 26 27  1  0
 27 28  2  0
 28 23  1  0
 28 29  1  0
 29  6  1  0
 29 30  2  0
 26 31  1  0
 31 32  1  0
 32 33  1  0
 33 25  1  0
M  END
> <Smiles>
COc1cc2c3c(n(CCCNCCN)c(=O)c2cc1OC)-c1cc2c(cc1C3=O)OCO2.Cl.Cl

> <ID>
CHEMBL346063

> <standard_value>
430

> <IC50_uM>
0.43

> <Activity>
Yes

> <pIC50>
6.366531544

> <BCI>
1

> <RemovedSalts>
HCl
HCl

$$$$

  SciTegic03012415362D

 32 36  0  0  0  0            999 V2000
    2.5951   -3.0031    0.0000 C   0  0
    2.5973   -1.5031    0.0000 O   0  0
    1.2990   -0.7500    0.0000 C   0  0
    1.2990    0.7500    0.0000 C   0  0
    0.0000    1.5000    0.0000 N   0  0
   -1.2990    0.7500    0.0000 C   0  0
   -1.2990   -0.7500    0.0000 C   0  0
    0.0000   -1.5000    0.0000 C   0  0
   -2.7248   -1.2135    0.0000 C   0  0
   -3.1882   -2.6402    0.0000 O   0  0
   -3.6065    0.0000    0.0000 C   0  0
   -2.7248    1.2135    0.0000 C   0  0
   -3.3339    2.5831    0.0000 N   0  0
   -2.4537    3.7988    0.0000 C   0  0
   -3.0656    5.1692    0.0000 C   0  0
   -2.1854    6.3848    0.0000 C   0  0
   -2.7972    7.7553    0.0000 N   0  0
   -1.9193    8.9716    0.0000 C   0  0
   -2.5336   10.3400    0.0000 C   0  0
   -4.0259   10.4923    0.0000 C   0  0
   -4.6402   11.8607    0.0000 O   0  0
   -4.9038    9.2761    0.0000 C   0  0
   -4.2896    7.9076    0.0000 C   0  0
   -4.8257    2.7399    0.0000 C   0  0
   -5.4358    4.1102    0.0000 O   0  0
   -5.7073    1.5263    0.0000 C   0  0
   -7.1991    1.6831    0.0000 C   0  0
   -8.0808    0.4696    0.0000 C   0  0
   -9.5726    0.6264    0.0000 Cl  0  0
   -7.4707   -0.9007    0.0000 C   0  0
   -5.9789   -1.0575    0.0000 C   0  0
   -5.0972    0.1560    0.0000 C   0  0
  1  2  1  0
  2  3  1  0
  3  4  2  0
  4  5  1  0
  5  6  2  0
  6  7  1  0
  7  8  2  0
  8  3  1  0
  7  9  1  0
  9 10  2  0
  9 11  1  0
 11 12  2  0
 12  6  1  0
 12 13  1  0
 13 14  1  0
 14 15  1  0
 15 16  1  0
 16 17  1  0
 17 18  1  0
 18 19  1  0
 19 20  1  0
 20 21  1  0
 20 22  1  0
 22 23  1  0
 23 17  1  0
 13 24  1  0
 24 25  2  0
 24 26  1  0
 26 27  2  0
 27 28  1  0
 28 29  1  0
 28 30  2  0
 30 31  1  0
 31 32  2  0
 32 11  1  0
 32 26  1  0
M  END
> <Smiles>
COc1cnc2c(c1)C(=O)c1c-2n(CCCN2CCC(O)CC2)c(=O)c2cc(Cl)ccc12

> <ID>
CHEMBL4083140

> <standard_value>
430

> <IC50_uM>
0.43

> <Activity>
Yes

> <pIC50>
6.366531544

> <BCI>
1

$$$$

  SciTegic03012415362D

 25 27  0  0  0  0            999 V2000
    0.1679  -10.9036    0.0000 C   0  0
   -1.2997  -10.5936    0.0000 O   0  0
   -1.7662   -9.1671    0.0000 C   0  0
   -0.7624   -8.0525    0.0000 C   0  0
   -1.2256   -6.6258    0.0000 C   0  0
   -0.2234   -5.5086    0.0000 C   0  0
    1.2451   -5.8183    0.0000 C   0  0
    2.7128   -6.1279    0.0000 N   0  0
   -0.6890   -4.0818    0.0000 C   0  0
    0.3114   -2.9665    0.0000 C   0  0
    1.8032   -3.1233    0.0000 C   0  0
    2.4133   -1.7530    0.0000 O   0  0
    1.2990   -0.7500    0.0000 C   0  0
    1.2990    0.7500    0.0000 C   0  0
    0.0000    1.5000    0.0000 C   0  0
   -1.2990    0.7500    0.0000 C   0  0
   -1.2990   -0.7500    0.0000 C   0  0
    0.0000   -1.5000    0.0000 C   0  0
   -2.6928   -6.3138    0.0000 C   0  0
   -3.6967   -7.4283    0.0000 C   0  0
   -5.1640   -7.1130    0.0000 O   0  0
   -5.6253   -5.6857    0.0000 C   0  0
   -3.2334   -8.8550    0.0000 C   0  0
   -4.2355   -9.9722    0.0000 O   0  0
   -3.7702  -11.3982    0.0000 C   0  0
  1  2  1  0
  2  3  1  0
  3  4  2  0
  4  5  1  0
  5  6  1  0
  6  7  1  0
  7  8  3  0
  6  9  2  0
  9 10  1  0
 10 11  2  0
 11 12  1  0
 12 13  1  0
 13 14  2  0
 14 15  1  0
 15 16  2  0
 16 17  1  0
 17 18  2  0
 18 10  1  0
 18 13  1  0
  5 19  2  0
 19 20  1  0
 20 21  1  0
 21 22  1  0
 20 23  2  0
 23  3  1  0
 23 24  1  0
 24 25  1  0
M  END
> <Smiles>
COc1cc(/C(C#N)=C/c2coc3ccccc23)cc(OC)c1OC

> <ID>
CHEMBL3409063

> <standard_value>
442

> <IC50_uM>
0.442

> <Activity>
Yes

> <pIC50>
6.354577731

> <BCI>
1

$$$$

  SciTegic03012415362D

 22 23  0  0  0  0            999 V2000
    2.6030   -2.9977    0.0000 N   0  0
    2.6003   -1.4977    0.0000 C   0  0
    3.8983   -0.7459    0.0000 O   0  0
    1.2990   -0.7500    0.0000 C   0  0
    1.2990    0.7500    0.0000 C   0  0
    0.0000    1.5000    0.0000 C   0  0
    0.0000    3.0000    0.0000 I   0  0
   -1.2990    0.7500    0.0000 C   0  0
   -1.2990   -0.7500    0.0000 C   0  0
    0.0000   -1.5000    0.0000 C   0  0
   -0.0031   -3.0008    0.0000 N   0  0
   -1.3039   -3.7494    0.0000 C   0  0
   -2.6016   -2.9971    0.0000 O   0  0
   -1.3070   -5.2502    0.0000 C   0  0
   -2.6078   -5.9988    0.0000 C   0  0
   -2.6109   -7.4996    0.0000 C   0  0
   -1.3118   -8.2497    0.0000 C   0  0
   -1.3119   -9.7497    0.0000 C   0  0
   -2.6109  -10.4997    0.0000 C   0  0
   -3.9100   -9.7497    0.0000 C   0  0
   -3.9099   -8.2497    0.0000 C   0  0
   -5.2090   -7.4997    0.0000 Cl  0  0
  1  2  1  0
  2  3  2  0
  2  4  1  0
  4  5  2  0
  5  6  1  0
  6  7  1  0
  6  8  2  0
  8  9  1  0
  9 10  2  0
 10  4  1  0
 10 11  1  0
 11 12  1  0
 12 13  2  0
 12 14  1  0
 14 15  2  0
 15 16  1  0
 16 17  2  0
 17 18  1  0
 18 19  2  0
 19 20  1  0
 20 21  2  0
 21 16  1  0
 21 22  1  0
M  END
> <Smiles>
NC(=O)c1cc(I)ccc1NC(=O)/C=C/c1ccccc1Cl

> <ID>
CHEMBL1796404

> <standard_value>
444

> <IC50_uM>
0.444

> <Activity>
Yes

> <pIC50>
6.35261703

> <BCI>
1

$$$$

  SciTegic03012415362D

 21 22  0  0  0  0            999 V2000
    2.6030   -2.9977    0.0000 N   0  0
    2.6003   -1.4977    0.0000 C   0  0
    3.8983   -0.7459    0.0000 O   0  0
    1.2990   -0.7500    0.0000 C   0  0
    1.2990    0.7500    0.0000 C   0  0
    0.0000    1.5000    0.0000 C   0  0
    0.0000    3.0000    0.0000 I   0  0
   -1.2990    0.7500    0.0000 C   0  0
   -1.2990   -0.7500    0.0000 C   0  0
    0.0000   -1.5000    0.0000 C   0  0
   -0.0031   -3.0008    0.0000 N   0  0
   -1.3039   -3.7494    0.0000 C   0  0
   -2.6016   -2.9971    0.0000 O   0  0
   -1.3070   -5.2502    0.0000 C   0  0
   -2.6078   -5.9988    0.0000 C   0  0
   -2.6109   -7.4996    0.0000 C   0  0
   -3.9099   -8.2497    0.0000 C   0  0
   -3.9099   -9.7497    0.0000 C   0  0
   -2.6109  -10.4997    0.0000 C   0  0
   -1.3119   -9.7497    0.0000 C   0  0
   -1.3118   -8.2497    0.0000 C   0  0
  1  2  1  0
  2  3  2  0
  2  4  1  0
  4  5  2  0
  5  6  1  0
  6  7  1  0
  6  8  2  0
  8  9  1  0
  9 10  2  0
 10  4  1  0
 10 11  1  0
 11 12  1  0
 12 13  2  0
 12 14  1  0
 14 15  2  0
 15 16  1  0
 16 17  2  0
 17 18  1  0
 18 19  2  0
 19 20  1  0
 20 21  2  0
 21 16  1  0
M  END
> <Smiles>
NC(=O)c1cc(I)ccc1NC(=O)/C=C/c1ccccc1

> <ID>
CHEMBL1796403

> <standard_value>
445

> <IC50_uM>
0.445

> <Activity>
Yes

> <pIC50>
6.351639989

> <BCI>
1

$$$$

  SciTegic03012415362D

 30 33  0  0  0  0            999 V2000
    3.8983   -0.7459    0.0000 C   0  0
    2.6003   -1.4977    0.0000 O   0  0
    1.2990   -0.7500    0.0000 C   0  0
    1.2990    0.7500    0.0000 C   0  0
    0.0000    1.5000    0.0000 C   0  0
   -1.2990    0.7500    0.0000 C   0  0
   -1.2990   -0.7500    0.0000 C   0  0
    0.0000   -1.5000    0.0000 C   0  0
   -0.0031   -3.0008    0.0000 O   0  0
   -1.3032   -3.7490    0.0000 C   0  0
   -2.4133    1.7530    0.0000 C   0  0
   -1.8032    3.1233    0.0000 C   0  0
   -2.6838    4.3363    0.0000 C   0  0
   -2.0737    5.7066    0.0000 C   0  0
   -2.9554    6.9201    0.0000 C   0  0
   -4.4472    6.7633    0.0000 C   0  0
   -5.0572    5.3930    0.0000 C   0  0
   -4.1756    4.1795    0.0000 C   0  0
   -4.7857    2.8092    0.0000 C   0  0
   -6.2774    2.6524    0.0000 O   0  0
   -3.9040    1.5956    0.0000 N   0  0
   -4.5167    0.2256    0.0000 C   0  0
   -6.0094    0.0702    0.0000 C   0  0
   -6.6221   -1.2999    0.0000 C   0  0
   -8.1149   -1.4552    0.0000 N   0  0
   -8.7276   -2.8253    0.0000 C   0  0
  -10.2203   -2.9807    0.0000 C   0  0
  -10.8327   -4.3500    0.0000 O   0  0
   -0.3115    2.9665    0.0000 C   0  0
    0.6923    4.0811    0.0000 O   0  0
  1  2  1  0
  2  3  1  0
  3  4  2  0
  4  5  1  0
  5  6  2  0
  6  7  1  0
  7  8  2  0
  8  3  1  0
  8  9  1  0
  9 10  1  0
  6 11  1  0
 11 12  2  0
 12 13  1  0
 13 14  2  0
 14 15  1  0
 15 16  2  0
 16 17  1  0
 17 18  2  0
 18 13  1  0
 18 19  1  0
 19 20  2  0
 19 21  1  0
 21 11  1  0
 21 22  1  0
 22 23  1  0
 23 24  1  0
 24 25  1  0
 25 26  1  0
 26 27  1  0
 27 28  1  0
 12 29  1  0
 29  5  1  0
 29 30  2  0
M  END
> <Smiles>
COc1cc2c(cc1OC)-c1c(c3ccccc3c(=O)n1CCCNCCO)C2=O.Cl

> <ID>
CHEMBL1203221

> <standard_value>
450

> <IC50_uM>
0.45

> <Activity>
Yes

> <pIC50>
6.346787486

> <BCI>
1

> <RemovedSalts>
HCl

$$$$

  SciTegic03012415362D

 29 32  0  0  0  0            999 V2000
    6.4869   -6.7636    0.0000 N   0  5
    5.1894   -6.0109    0.0000 N   0  3
    3.8912   -5.2578    0.0000 N   0  0
    3.8933   -3.7570    0.0000 C   0  0
    2.5951   -3.0039    0.0000 C   0  0
    2.5973   -1.5031    0.0000 C   0  0
    1.2990   -0.7500    0.0000 N   0  0
    1.2990    0.7500    0.0000 C   0  0
    0.0000    1.5000    0.0000 C   0  0
   -1.2990    0.7500    0.0000 C   0  0
   -2.5981    1.5000    0.0000 C   0  0
   -3.8971    0.7500    0.0000 C   0  0
   -3.8971   -0.7500    0.0000 C   0  0
   -5.1953   -1.5031    0.0000 N   0  3
   -5.1932   -3.0031    0.0000 O   0  0
   -6.4957   -0.7554    0.0000 O   0  5
   -2.5981   -1.5000    0.0000 C   0  0
   -1.2990   -0.7500    0.0000 C   0  0
    0.0000   -1.5000    0.0000 C   0  0
    0.0000   -3.0000    0.0000 O   0  0
    0.3114    2.9665    0.0000 C   0  0
   -0.6924    4.0811    0.0000 O   0  0
    1.8032    3.1233    0.0000 C   0  0
    2.6837    4.3363    0.0000 C   0  0
    4.1755    4.1795    0.0000 C   0  0
    5.0572    5.3931    0.0000 F   0  0
    4.7856    2.8092    0.0000 C   0  0
    3.9040    1.5957    0.0000 C   0  0
    2.4133    1.7530    0.0000 C   0  0
  1  2  2  0
  2  3  2  0
  3  4  1  0
  4  5  1  0
  5  6  1  0
  6  7  1  0
  7  8  1  0
  8  9  2  0
  9 10  1  0
 10 11  2  0
 11 12  1  0
 12 13  2  0
 13 14  1  0
 14 15  2  0
 14 16  1  0
 13 17  1  0
 17 18  2  0
 18 10  1  0
 18 19  1  0
 19  7  1  0
 19 20  2  0
  9 21  1  0
 21 22  2  0
 21 23  1  0
 23 24  2  0
 24 25  1  0
 25 26  1  0
 25 27  2  0
 27 28  1  0
 28 29  2  0
 29 23  1  0
 29  8  1  0
M  CHG  4   1  -1   2   1  14   1  16  -1
M  END
> <Smiles>
[N-]=[N+]=NCCCn1c2c(c3ccc([N+](=O)[O-])cc3c1=O)C(=O)c1cc(F)ccc1-2

> <ID>
CHEMBL395537

> <standard_value>
457

> <IC50_uM>
0.457

> <Activity>
Yes

> <pIC50>
6.3400838

> <BCI>
1

$$$$

  SciTegic03012415362D

 30 33  0  0  1  0            999 V2000
    3.8983   -0.7459    0.0000 C   0  0
    2.6003   -1.4977    0.0000 C   0  0
    1.2990   -0.7500    0.0000 C   0  0
    1.2990    0.7500    0.0000 C   0  0
    0.0000    1.5000    0.0000 C   0  0
   -1.2990    0.7500    0.0000 C   0  0
   -1.2990   -0.7500    0.0000 C   0  0
    0.0000   -1.5000    0.0000 C   0  0
   -0.0031   -3.0008    0.0000 O   0  0
   -1.3039   -3.7494    0.0000 S   0  0
   -2.6016   -2.9971    0.0000 N   0  0
   -1.3070   -5.2494    0.0000 O   0  0
   -2.6044   -4.4969    0.0000 O   0  0
   -2.5981    1.5000    0.0000 C   0  0
   -2.5981    3.0000    0.0000 C   0  0
   -1.2991    3.7500    0.0000 C   0  0  2  0  0  0
    0.0000    3.0000    0.0000 C   0  0  2  0  0  0
    1.2990    3.7500    0.0000 C   0  0
    1.2990    5.2500    0.0000 C   0  0
    0.0000    6.0000    0.0000 C   0  0  2  0  0  0
    1.2211    6.8711    0.0000 C   0  0
   -0.2851    7.4666    0.0000 C   0  0  1  0  0  0
    0.7337    8.5650    0.0000 N   0  0
    2.1972    8.2322    0.0000 S   0  0
    2.6400    6.7990    0.0000 C   0  0
    3.2173    9.3319    0.0000 O   0  0
    3.6597    7.8988    0.0000 O   0  0
   -1.7759    7.6329    0.0000 C   0  0
   -2.3947    6.2665    0.0000 C   0  0
   -1.2991    5.2500    0.0000 C   0  0  1  0  0  0
  1  2  1  0
  2  3  1  0
  3  4  2  0
  4  5  1  0
  5  6  2  0
  6  7  1  0
  7  8  2  0
  8  3  1  0
  8  9  1  0
  9 10  1  0
 10 11  1  0
 10 12  2  0
 10 13  2  0
  6 14  1  0
 14 15  1  0
 16 15  1  1
 16 17  1  0
 17  5  1  0
 17 18  1  6
 18 19  1  0
 19 20  1  0
 20 21  1  6
 20 22  1  0
 22 23  1  6
 23 24  1  0
 24 25  1  0
 24 26  2  0
 24 27  2  0
 22 28  1  0
 28 29  1  0
 30 29  1  6
 30 16  1  0
 30 20  1  0
M  END
> <Smiles>
CCc1cc2c(cc1OS(N)(=O)=O)CC[C@@H]1[C@@H]2CC[C@]2(C)[C@@H](NS(C)(=O)=O)CC[C@@H]12

> <ID>
CHEMBL1091582

> <standard_value>
470

> <IC50_uM>
0.47

> <Activity>
Yes

> <pIC50>
6.327902142

> <BCI>
1

$$$$

  SciTegic03012415362D

 21 24  0  0  0  0            999 V2000
    2.5951   -3.0031    0.0000 C   0  0
    2.5973   -1.5031    0.0000 O   0  0
    1.2990   -0.7500    0.0000 C   0  0
    1.2990    0.7500    0.0000 C   0  0
    0.0000    1.5000    0.0000 C   0  0
   -1.2990    0.7500    0.0000 C   0  0
   -1.2990   -0.7500    0.0000 C   0  0
    0.0000   -1.5000    0.0000 C   0  0
   -2.5981   -1.5000    0.0000 N   0  0
   -3.8971   -0.7500    0.0000 N   0  0
   -3.8971    0.7500    0.0000 N   0  0
   -5.0114    1.7529    0.0000 C   0  0
   -6.5021    1.5956    0.0000 N   0  0
   -7.3837    2.8092    0.0000 C   0  0
   -6.7736    4.1795    0.0000 C   0  0
   -5.2818    4.3363    0.0000 C   0  0
   -4.4013    3.1233    0.0000 C   0  0
   -2.9095    2.9665    0.0000 C   0  0
   -1.9045    4.0776    0.0000 N   0  0
   -0.4378    3.7633    0.0000 O   0  0
   -2.5981    1.5000    0.0000 C   0  0
  1  2  1  0
  2  3  1  0
  3  4  2  0
  4  5  1  0
  5  6  2  0
  6  7  1  0
  7  8  2  0
  8  3  1  0
  7  9  1  0
  9 10  2  0
 10 11  1  0
 11 12  1  0
 12 13  2  0
 13 14  1  0
 14 15  2  0
 15 16  1  0
 16 17  2  0
 17 12  1  0
 17 18  1  0
 18 19  1  0
 19 20  2  0
 18 21  2  0
 21  6  1  0
 21 11  1  0
M  END
> <Smiles>
COc1ccc2c(c1)nnn1c3ncccc3c(N=O)c21

> <ID>
CHEMBL3357019

> <standard_value>
470

> <IC50_uM>
0.47

> <Activity>
Yes

> <pIC50>
6.327902142

> <BCI>
1

$$$$

  SciTegic03012415362D

 31 35  0  0  0  0            999 V2000
    2.5951   -3.0031    0.0000 C   0  0
    2.5973   -1.5031    0.0000 O   0  0
    1.2990   -0.7500    0.0000 C   0  0
    1.2990    0.7500    0.0000 C   0  0
    0.0000    1.5000    0.0000 N   0  0
   -1.2990    0.7500    0.0000 C   0  0
   -1.2990   -0.7500    0.0000 C   0  0
    0.0000   -1.5000    0.0000 C   0  0
   -2.7248   -1.2135    0.0000 C   0  0
   -3.1882   -2.6402    0.0000 O   0  0
   -3.6065    0.0000    0.0000 C   0  0
   -2.7248    1.2135    0.0000 C   0  0
   -3.3339    2.5831    0.0000 N   0  0
   -2.4537    3.7988    0.0000 C   0  0
   -3.0656    5.1692    0.0000 C   0  0
   -2.1854    6.3848    0.0000 C   0  0
   -2.7972    7.7553    0.0000 N   0  0
   -1.9171    8.9709    0.0000 C   0  0
   -2.3929   10.3800    0.0000 N   0  0
   -1.1790   11.2612    0.0000 C   0  0
    0.0342   10.3791    0.0000 C   0  0
   -0.4299    8.9527    0.0000 S   0  0
   -4.8257    2.7399    0.0000 C   0  0
   -5.4358    4.1102    0.0000 O   0  0
   -5.7073    1.5263    0.0000 C   0  0
   -7.1991    1.6831    0.0000 C   0  0
   -8.0808    0.4696    0.0000 C   0  0
   -9.5726    0.6264    0.0000 Cl  0  0
   -7.4707   -0.9007    0.0000 C   0  0
   -5.9789   -1.0575    0.0000 C   0  0
   -5.0972    0.1560    0.0000 C   0  0
  1  2  1  0
  2  3  1  0
  3  4  2  0
  4  5  1  0
  5  6  2  0
  6  7  1  0
  7  8  2  0
  8  3  1  0
  7  9  1  0
  9 10  2  0
  9 11  1  0
 11 12  2  0
 12  6  1  0
 12 13  1  0
 13 14  1  0
 14 15  1  0
 15 16  1  0
 16 17  1  0
 17 18  1  0
 18 19  2  0
 19 20  1  0
 20 21  1  0
 21 22  1  0
 22 18  1  0
 13 23  1  0
 23 24  2  0
 23 25  1  0
 25 26  2  0
 26 27  1  0
 27 28  1  0
 27 29  2  0
 29 30  1  0
 30 31  2  0
 31 11  1  0
 31 25  1  0
M  END
> <Smiles>
COc1cnc2c(c1)C(=O)c1c-2n(CCCNC2=NCCS2)c(=O)c2cc(Cl)ccc12

> <ID>
CHEMBL4072279

> <standard_value>
470

> <IC50_uM>
0.47

> <Activity>
Yes

> <pIC50>
6.327902142

> <BCI>
1

$$$$

  SciTegic03012415362D

 28 31  0  0  1  0            999 V2000
   -1.4188  -10.5751    0.0000 C   0  0
   -1.8661   -9.1434    0.0000 C   0  0
   -3.3298   -8.8154    0.0000 C   0  0
   -0.8500   -8.0388    0.0000 C   0  0
   -1.2977   -6.6063    0.0000 C   0  0
   -0.2816   -5.5018    0.0000 C   0  0
   -0.7292   -4.0692    0.0000 C   0  0  1  0  0  0
   -2.1929   -3.7413    0.0000 C   0  0
    0.2851   -2.9666    0.0000 C   0  0  1  0  0  0
    1.7758   -3.1329    0.0000 C   0  0
    2.3947   -1.7666    0.0000 C   0  0
    1.2990   -0.7500    0.0000 C   0  0  1  0  0  0
    1.2990    0.7500    0.0000 C   0  0
    2.5981    1.5000    0.0000 C   0  0
    2.5981    3.0000    0.0000 C   0  0
    1.2990    3.7500    0.0000 C   0  0  2  0  0  0
    1.2990    5.2500    0.0000 C   0  0
    2.5980    6.0000    0.0000 O   0  0
    0.0000    6.0000    0.0000 C   0  0
   -1.2991    5.2500    0.0000 C   0  0
   -1.2991    3.7500    0.0000 C   0  0
   -2.5981    3.0000    0.0000 O   0  0
    0.0000    3.0000    0.0000 C   0  0  2  0  0  0
    0.0000    1.5000    0.0000 C   0  0  2  0  0  0
   -1.2990    0.7500    0.0000 C   0  0
   -1.2990   -0.7500    0.0000 C   0  0
    0.0000   -1.5000    0.0000 C   0  0  2  0  0  0
   -1.2212   -2.3711    0.0000 C   0  0
  1  2  1  0
  2  3  1  0
  2  4  1  0
  4  5  1  0
  5  6  1  0
  6  7  1  0
  7  8  1  1
  7  9  1  0
  9 10  1  6
 10 11  1  0
 12 11  1  6
 12 13  1  0
 13 14  2  0
 14 15  1  0
 16 15  1  1
 16 17  1  0
 17 18  2  0
 17 19  1  0
 19 20  2  0
 20 21  1  0
 21 22  2  0
 23 21  1  1
 23 16  1  0
 23 24  1  0
 24 13  1  0
 24 25  1  1
 25 26  1  0
 26 27  1  0
 27  9  1  0
 27 12  1  0
 27 28  1  6
M  END
> <Smiles>
CC(C)CCC[C@@H](C)[C@H]1CC[C@H]2C3=CC[C@@H]4C(=O)C=CC(=O)[C@@H]4[C@@H]3CC[C@]12C

> <ID>
CHEMBL1806959

> <standard_value>
478

> <IC50_uM>
0.478

> <Activity>
Yes

> <pIC50>
6.320572103

> <BCI>
1

$$$$

  SciTegic03012415362D

 35 37  0  0  0  0            999 V2000
    3.8926   -3.7566    0.0000 C   0  0
    2.5951   -3.0039    0.0000 C   0  0
    2.5973   -1.5031    0.0000 N   0  0
    3.8999   -0.7576    0.0000 C   0  0
    5.1965   -1.5117    0.0000 C   0  0
    1.2990   -0.7500    0.0000 C   0  0
    1.2990    0.7500    0.0000 C   0  0
    0.0000    1.5000    0.0000 C   0  0
   -1.2990    0.7500    0.0000 C   0  0
   -2.5973    1.5031    0.0000 C   0  0
   -2.5951    3.0039    0.0000 N   0  0
   -3.8933    3.7570    0.0000 N   0  0
   -3.8912    5.2578    0.0000 C   0  0
   -2.5909    6.0055    0.0000 O   0  0
   -5.1894    6.0109    0.0000 C   0  0
   -5.1873    7.5117    0.0000 C   0  0
   -6.4837    8.2663    0.0000 C   0  0
   -6.4785    9.7663    0.0000 C   0  0
   -5.1769   10.5118    0.0000 C   0  0
   -5.1686   12.0126    0.0000 N   0  0
   -3.8652   12.7567    0.0000 C   0  0
   -3.8548   14.2567    0.0000 C   0  0
   -2.5506   14.9977    0.0000 C   0  0
   -1.2568   14.2387    0.0000 N   0  0
   -1.2671   12.7387    0.0000 C   0  0
    0.0274   11.9793    0.0000 C   0  0
    1.3321   12.7195    0.0000 F   0  0
    0.0166   10.4794    0.0000 F   0  0
    1.3209   11.2198    0.0000 F   0  0
   -2.5713   11.9977    0.0000 C   0  0
   -3.8805    9.7573    0.0000 C   0  0
   -3.8856    8.2573    0.0000 C   0  0
   -1.2990   -0.7500    0.0000 C   0  0
   -2.5981   -1.5000    0.0000 O   0  0
    0.0000   -1.5000    0.0000 C   0  0
  1  2  1  0
  2  3  1  0
  3  4  1  0
  4  5  1  0
  3  6  1  0
  6  7  2  0
  7  8  1  0
  8  9  2  0
  9 10  1  0
 10 11  2  0
 11 12  1  0
 12 13  1  0
 13 14  2  0
 13 15  1  0
 15 16  1  0
 16 17  2  0
 17 18  1  0
 18 19  2  0
 19 20  1  0
 20 21  1  0
 21 22  2  0
 22 23  1  0
 23 24  2  0
 24 25  1  0
 25 26  1  0
 26 27  1  0
 26 28  1  0
 26 29  1  0
 25 30  2  0
 30 21  1  0
 19 31  1  0
 31 32  2  0
 32 16  1  0
  9 33  1  0
 33 34  1  0
 33 35  2  0
 35  6  1  0
M  END
> <Smiles>
CCN(CC)c1ccc(/C=N/NC(=O)Cc2ccc(Nc3ccnc(C(F)(F)F)c3)cc2)c(O)c1

> <ID>
CHEMBL2440582

> <standard_value>
478.63

> <IC50_uM>
0.47863

> <Activity>
Yes

> <pIC50>
6.320000084

> <BCI>
1

$$$$

  SciTegic03012415362D

 34 39  0  0  0  0            999 V2000
    3.8983   -0.7459    0.0000 C   0  0
    2.6003   -1.4977    0.0000 O   0  0
    1.2990   -0.7500    0.0000 C   0  0
    1.2990    0.7500    0.0000 C   0  0
    0.0000    1.5000    0.0000 C   0  0
    0.0000    3.0000    0.0000 C   0  0
   -1.2991    3.7500    0.0000 C   0  0
   -2.5981    3.0000    0.0000 N   0  0
   -3.8994    3.7477    0.0000 C   0  0
   -5.1981    2.9954    0.0000 C   0  0
   -6.4994    3.7432    0.0000 C   0  0
   -7.7981    2.9909    0.0000 N   0  0
   -9.1516    3.6072    0.0000 C   0  0
  -10.1514    2.4890    0.0000 C   0  0
   -9.3969    1.1926    0.0000 N   0  0
   -7.9308    1.5096    0.0000 C   0  0
   -2.5981    1.5000    0.0000 C   0  0
   -3.8971    0.7500    0.0000 O   0  0
   -1.2990    0.7500    0.0000 C   0  0
   -1.2990   -0.7500    0.0000 C   0  0
    0.0000   -1.5000    0.0000 C   0  0
   -0.0031   -3.0008    0.0000 O   0  0
   -1.3032   -3.7490    0.0000 C   0  0
   -0.9876    5.2165    0.0000 C   0  0
   -1.8692    6.4288    0.0000 C   0  0
   -1.2591    7.7991    0.0000 C   0  0
    0.2327    7.9559    0.0000 C   0  0
    1.1144    6.7424    0.0000 C   0  0
    0.5042    5.3733    0.0000 C   0  0
    1.1143    4.0030    0.0000 C   0  0  3  0  0  0
    2.5815    3.6910    0.0000 O   0  0
    0.5446    9.4223    0.0000 O   0  0
   -0.7544   10.1723    0.0000 C   0  0
   -1.8691    9.1686    0.0000 O   0  0
  1  2  1  0
  2  3  1  0
  3  4  2  0
  4  5  1  0
  5  6  1  0
  6  7  2  0
  7  8  1  0
  8  9  1  0
  9 10  1  0
 10 11  1  0
 11 12  1  0
 12 13  1  0
 13 14  2  0
 14 15  1  0
 15 16  2  0
 16 12  1  0
  8 17  1  0
 17 18  2  0
 17 19  1  0
 19  5  2  0
 19 20  1  0
 20 21  2  0
 21  3  1  0
 21 22  1  0
 22 23  1  0
  7 24  1  0
 24 25  2  0
 25 26  1  0
 26 27  2  0
 27 28  1  0
 28 29  2  0
 29 24  1  0
 29 30  1  0
 30  6  1  0
 30 31  1  4
 27 32  1  0
 32 33  1  0
 33 34  1  0
 34 26  1  0
M  END
> <Smiles>
COc1cc2c3c(n(CCCn4ccnc4)c(=O)c2cc1OC)-c1cc2c(cc1C3O)OCO2

> <ID>
CHEMBL2177796

> <standard_value>
479

> <IC50_uM>
0.479

> <Activity>
Yes

> <pIC50>
6.319664487

> <BCI>
1

$$$$

  SciTegic03012415362D

 33 39  0  0  1  0            999 V2000
    2.5981   -1.5000    0.0000 O   0  0
    1.2990   -0.7500    0.0000 C   0  0
    1.2990    0.7500    0.0000 C   0  0
    2.5981    1.5000    0.0000 C   0  0
    2.5981    3.0000    0.0000 C   0  0
    1.2990    3.7500    0.0000 C   0  0
    0.0000    3.0000    0.0000 C   0  0
    0.0000    1.5000    0.0000 C   0  0
   -1.2990    0.7500    0.0000 C   0  0
   -1.2990   -0.7500    0.0000 C   0  0
    0.0000   -1.5000    0.0000 N   0  0
   -0.3114   -2.9665    0.0000 C   0  0
   -1.8032   -3.1233    0.0000 C   0  0
   -2.4133   -1.7530    0.0000 C   0  0
   -3.9040   -1.5957    0.0000 N   0  0
   -4.7856   -2.8092    0.0000 C   0  0
   -6.2774   -2.6524    0.0000 C   0  0
   -7.1591   -3.8659    0.0000 C   0  0
   -6.5490   -5.2363    0.0000 C   0  0
   -5.0572   -5.3930    0.0000 C   0  0
   -4.1755   -4.1795    0.0000 C   0  0
   -2.6837   -4.3363    0.0000 C   0  0
   -2.0699   -5.7059    0.0000 C   0  0
   -0.5770   -5.8600    0.0000 N   0  0
    0.1563   -7.1539    0.0000 C   0  0
    1.6223   -6.8363    0.0000 C   0  0
    1.7733   -5.3440    0.0000 C   0  0  2  0  0  0
    3.0694   -4.5889    0.0000 O   0  0
    0.4006   -4.7392    0.0000 C   0  0
   -7.4307   -6.4498    0.0000 O   0  0
   -8.9224   -6.2930    0.0000 C   0  0
   -9.5325   -4.9227    0.0000 C   0  0
   -8.6509   -3.7092    0.0000 O   0  0
  1  2  2  0
  2  3  1  0
  3  4  2  0
  4  5  1  0
  5  6  2  0
  6  7  1  0
  7  8  2  0
  8  3  1  0
  8  9  1  0
  9 10  2  0
 10 11  1  0
 11  2  1  0
 11 12  1  0
 12 13  1  0
 13 14  2  0
 14 10  1  0
 14 15  1  0
 15 16  2  0
 16 17  1  0
 17 18  2  0
 18 19  1  0
 19 20  2  0
 20 21  1  0
 21 16  1  0
 21 22  2  0
 22 13  1  0
 22 23  1  0
 23 24  1  0
 24 25  1  0
 25 26  1  0
 26 27  1  0
 27 28  1  1
 27 29  1  0
 29 24  1  0
 19 30  1  0
 30 31  1  0
 31 32  1  0
 32 33  1  0
 33 18  1  0
M  END
> <Smiles>
O=c1c2ccccc2cc2n1Cc1c-2nc2cc3c(cc2c1CN1CC[C@H](O)C1)OCCO3

> <ID>
CHEMBL1214036

> <standard_value>
490

> <IC50_uM>
0.49

> <Activity>
Yes

> <pIC50>
6.30980392

> <BCI>
1

$$$$

  SciTegic03012415362D

 33 38  0  0  0  0            999 V2000
    2.5981   -1.5000    0.0000 O   0  0
    1.2990   -0.7500    0.0000 C   0  0
    1.2990    0.7500    0.0000 C   0  0
    2.5981    1.5000    0.0000 C   0  0
    2.5981    3.0000    0.0000 C   0  0
    1.2990    3.7500    0.0000 C   0  0
    0.0000    3.0000    0.0000 C   0  0
    0.0000    1.5000    0.0000 C   0  0
   -1.2990    0.7500    0.0000 C   0  0
   -1.2990   -0.7500    0.0000 C   0  0
    0.0000   -1.5000    0.0000 N   0  0
   -0.3114   -2.9665    0.0000 C   0  0
   -1.8032   -3.1233    0.0000 C   0  0
   -2.4133   -1.7530    0.0000 C   0  0
   -3.9040   -1.5957    0.0000 N   0  0
   -4.7856   -2.8092    0.0000 C   0  0
   -6.2774   -2.6524    0.0000 C   0  0
   -7.1591   -3.8659    0.0000 C   0  0
   -6.5490   -5.2363    0.0000 C   0  0
   -5.0572   -5.3930    0.0000 C   0  0
   -4.1755   -4.1795    0.0000 C   0  0
   -2.6837   -4.3363    0.0000 C   0  0
   -2.0699   -5.7059    0.0000 C   0  0
   -0.5770   -5.8600    0.0000 C   0  0
    0.0368   -7.2296    0.0000 C   0  0
    1.5297   -7.3837    0.0000 N   0  0
    2.1435   -8.7533    0.0000 C   0  0
    3.6364   -8.9074    0.0000 C   0  0
    4.2499  -10.2762    0.0000 O   0  0
   -7.4307   -6.4498    0.0000 O   0  0
   -8.9224   -6.2930    0.0000 C   0  0
   -9.5325   -4.9227    0.0000 C   0  0
   -8.6509   -3.7092    0.0000 O   0  0
  1  2  2  0
  2  3  1  0
  3  4  2  0
  4  5  1  0
  5  6  2  0
  6  7  1  0
  7  8  2  0
  8  3  1  0
  8  9  1  0
  9 10  2  0
 10 11  1  0
 11  2  1  0
 11 12  1  0
 12 13  1  0
 13 14  2  0
 14 10  1  0
 14 15  1  0
 15 16  2  0
 16 17  1  0
 17 18  2  0
 18 19  1  0
 19 20  2  0
 20 21  1  0
 21 16  1  0
 21 22  2  0
 22 13  1  0
 22 23  1  0
 23 24  1  0
 24 25  1  0
 25 26  1  0
 26 27  1  0
 27 28  1  0
 28 29  1  0
 19 30  1  0
 30 31  1  0
 31 32  1  0
 32 33  1  0
 33 18  1  0
M  END
> <Smiles>
O=c1c2ccccc2cc2n1Cc1c-2nc2cc3c(cc2c1CCCNCCO)OCCO3

> <ID>
CHEMBL1214037

> <standard_value>
490

> <IC50_uM>
0.49

> <Activity>
Yes

> <pIC50>
6.30980392

> <BCI>
1

$$$$

  SciTegic03012415362D

 32 34  0  0  0  0            999 V2000
    7.7996   -1.4883    0.0000 C   0  0
    6.4990   -0.7409    0.0000 C   0  0
    5.2003   -1.4932    0.0000 O   0  0
    3.8990   -0.7455    0.0000 C   0  0
    3.8973    0.2545    0.0000 O   0  0
    2.6003   -1.4977    0.0000 C   0  0
    1.2990   -0.7500    0.0000 C   0  0  3  0  0  0
    1.2990    0.7500    0.0000 C   0  0
    2.5972    1.5031    0.0000 C   0  0
    3.4641    1.0046    0.0000 O   0  0
    2.5951    3.0039    0.0000 O   0  0
    3.8933    3.7570    0.0000 C   0  0
    3.8912    5.2570    0.0000 C   0  0
    0.0000    1.5000    0.0000 C   0  0
    0.0000    3.0000    0.0000 N   0  0
   -1.2990    0.7500    0.0000 O   0  0
   -1.2990   -0.7500    0.0000 C   0  0
   -2.5981   -1.5000    0.0000 C   0  0
   -2.5981   -3.0000    0.0000 C   0  0
   -1.2990   -3.7500    0.0000 C   0  0
   -1.2990   -5.2508    0.0000 C   0  0
   -2.5969   -6.0029    0.0000 C   0  0
   -2.5945   -7.5029    0.0000 C   0  0
   -3.8915   -8.2581    0.0000 O   0  0
   -3.8870   -9.7581    0.0000 C   0  0
   -1.2942   -8.2509    0.0000 C   0  0
    0.0036   -7.4988    0.0000 C   0  0
    1.3061   -8.2445    0.0000 O   0  0
    2.6029   -7.4906    0.0000 C   0  0
    0.0012   -5.9988    0.0000 C   0  0
    0.0000   -3.0000    0.0000 C   0  0
    0.0000   -1.5000    0.0000 C   0  0
  1  2  1  0
  2  3  1  0
  3  4  1  0
  4  5  2  0
  4  6  1  0
  7  6  1  4
  7  8  1  0
  8  9  1  0
  9 10  2  0
  9 11  1  0
 11 12  1  0
 12 13  1  0
  8 14  2  0
 14 15  1  0
 14 16  1  0
 16 17  1  0
 17 18  2  0
 18 19  1  0
 19 20  2  0
 20 21  1  0
 21 22  2  0
 22 23  1  0
 23 24  1  0
 24 25  1  0
 23 26  2  0
 26 27  1  0
 27 28  1  0
 28 29  1  0
 27 30  2  0
 30 21  1  0
 20 31  1  0
 31 32  2  0
 32 17  1  0
 32  7  1  0
M  END
> <Smiles>
CCOC(=O)CC1C(C(=O)OCC)=C(N)Oc2ccc(-c3cc(OC)cc(OC)c3)cc21

> <ID>
CHEMBL561602

> <standard_value>
490

> <IC50_uM>
0.49

> <Activity>
Yes

> <pIC50>
6.30980392

> <BCI>
1

$$$$

  SciTegic03012415362D

 50 55  0  0  0  0            999 V2000
    5.0997  -19.5010    0.0000 C   0  0
    3.8060  -18.7418    0.0000 O   0  0
    3.8157  -17.2410    0.0000 C   0  0
    5.1210  -16.5021    0.0000 C   0  0
    5.1339  -15.0021    0.0000 C   0  0
    6.4385  -14.2601    0.0000 C   0  0
    6.4491  -12.7593    0.0000 C   0  0
    7.7537  -12.0173    0.0000 C   0  0
    9.0476  -12.7761    0.0000 O   0  0
    7.7644  -10.5165    0.0000 C   0  0
    9.0672   -9.7731    0.0000 C   0  0
    9.0747   -8.2731    0.0000 C   0  0
    7.7795   -7.5165    0.0000 C   0  0
    7.7840   -6.0157    0.0000 N   0  0
    6.4870   -5.2605    0.0000 C   0  0
    5.1855   -6.0062    0.0000 O   0  0
    6.4915   -3.7597    0.0000 C   0  0
    5.1945   -3.0045    0.0000 N   0  0
    5.1969   -1.5045    0.0000 C   0  0
    3.8991   -0.7525    0.0000 C   0  0
    2.5987   -1.5004    0.0000 N   0  0
    1.2990   -0.7500    0.0000 C   0  0
    1.2990    0.7500    0.0000 C   0  0
    0.0000    1.5000    0.0000 C   0  0
   -1.2990    0.7500    0.0000 C   0  0
   -1.2990   -0.7500    0.0000 C   0  0
    0.0000   -1.5000    0.0000 C   0  0
    0.0000   -3.0000    0.0000 F   0  0
   -2.5981    1.5000    0.0000 C   0  0
   -3.8971    0.7500    0.0000 O   0  0
   -2.5981    3.0000    0.0000 C   0  0
   -3.8963    3.7531    0.0000 C   0  0
   -3.8942    5.2531    0.0000 O   0  0
   -5.1966    3.0053    0.0000 O   0  0
   -1.2991    3.7500    0.0000 C   0  0
    0.0000    3.0000    0.0000 N   0  0
    1.2997    3.7504    0.0000 C   0  0
    1.9725    5.0027    0.0000 C   0  0
    2.7204    3.7024    0.0000 C   0  0
    2.5965   -3.0004    0.0000 C   0  0
    3.8943   -3.7525    0.0000 C   0  0
    6.4767   -8.2600    0.0000 C   0  0
    6.4691   -9.7600    0.0000 C   0  0
    3.8412  -14.2411    0.0000 C   0  0
    2.5358  -14.9800    0.0000 C   0  0
    1.2440  -14.2159    0.0000 O   0  0
    1.2589  -12.7160    0.0000 C   0  0
    2.5231  -16.4800    0.0000 C   0  0
    1.2185  -17.2220    0.0000 O   0  0
    1.2079  -18.7219    0.0000 C   0  0
  1  2  1  0
  2  3  1  0
  3  4  2  0
  4  5  1  0
  5  6  1  0
  6  7  2  0
  7  8  1  0
  8  9  2  0
  8 10  1  0
 10 11  2  0
 11 12  1  0
 12 13  2  0
 13 14  1  0
 14 15  1  0
 15 16  2  0
 15 17  1  0
 17 18  1  0
 18 19  1  0
 19 20  1  0
 20 21  1  0
 21 22  1  0
 22 23  2  0
 23 24  1  0
 24 25  2  0
 25 26  1  0
 26 27  2  0
 27 22  1  0
 27 28  1  0
 25 29  1  0
 29 30  2  0
 29 31  1  0
 31 32  1  0
 32 33  2  0
 32 34  1  0
 31 35  2  0
 35 36  1  0
 36 24  1  0
 36 37  1  0
 37 38  1  0
 38 39  1  0
 39 37  1  0
 21 40  1  0
 40 41  1  0
 41 18  1  0
 13 42  1  0
 42 43  2  0
 43 10  1  0
  5 44  2  0
 44 45  1  0
 45 46  1  0
 46 47  1  0
 45 48  2  0
 48  3  1  0
 48 49  1  0
 49 50  1  0
M  END
> <Smiles>
COc1cc(/C=C/C(=O)c2ccc(NC(=O)CN3CCN(c4cc5c(cc4F)c(=O)c(C(=O)O)cn5C4CC4)CC3)cc2)cc(OC)c1OC

> <ID>
CHEMBL2436064

> <standard_value>
490

> <IC50_uM>
0.49

> <Activity>
Yes

> <pIC50>
6.30980392

> <BCI>
1

$$$$

  SciTegic03012415362D

 28 31  0  0  0  0            999 V2000
    5.1873   -7.5109    0.0000 C   0  0
    5.1894   -6.0109    0.0000 C   0  0
    3.8912   -5.2578    0.0000 N   0  0
    3.8933   -3.7570    0.0000 C   0  0
    2.5951   -3.0039    0.0000 C   0  0
    2.5973   -1.5031    0.0000 C   0  0
    1.2990   -0.7500    0.0000 N   0  0
    1.2990    0.7500    0.0000 C   0  0
    0.0000    1.5000    0.0000 C   0  0
   -1.2990    0.7500    0.0000 C   0  0
   -2.5981    1.5000    0.0000 C   0  0
   -3.8971    0.7500    0.0000 C   0  0
   -3.8971   -0.7500    0.0000 C   0  0
   -5.1961   -1.5000    0.0000 Cl  0  0
   -2.5981   -1.5000    0.0000 C   0  0
   -1.2990   -0.7500    0.0000 C   0  0
    0.0000   -1.5000    0.0000 C   0  0
    0.0000   -3.0000    0.0000 O   0  0
    0.3114    2.9665    0.0000 C   0  0
   -0.6924    4.0811    0.0000 O   0  0
    1.8032    3.1233    0.0000 C   0  0
    2.6837    4.3363    0.0000 C   0  0
    4.1755    4.1795    0.0000 C   0  0
    5.0602    5.3919    0.0000 O   0  0
    6.5517    5.2330    0.0000 C   0  0
    4.7856    2.8092    0.0000 C   0  0
    3.9040    1.5957    0.0000 N   0  0
    2.4133    1.7530    0.0000 C   0  0
  1  2  1  0
  2  3  1  0
  3  4  1  0
  4  5  1  0
  5  6  1  0
  6  7  1  0
  7  8  1  0
  8  9  2  0
  9 10  1  0
 10 11  2  0
 11 12  1  0
 12 13  2  0
 13 14  1  0
 13 15  1  0
 15 16  2  0
 16 10  1  0
 16 17  1  0
 17  7  1  0
 17 18  2  0
  9 19  1  0
 19 20  2  0
 19 21  1  0
 21 22  2  0
 22 23  1  0
 23 24  1  0
 24 25  1  0
 23 26  2  0
 26 27  1  0
 27 28  2  0
 28 21  1  0
 28  8  1  0
M  END
> <Smiles>
CCNCCCn1c2c(c3ccc(Cl)cc3c1=O)C(=O)c1cc(OC)cnc1-2

> <ID>
CHEMBL4079315

> <standard_value>
506

> <IC50_uM>
0.506

> <Activity>
Yes

> <pIC50>
6.295849483

> <BCI>
1

$$$$

  SciTegic03012415362D

 26 29  0  0  0  0            999 V2000
    5.0960   -3.6352    0.0000 N   0  0
    4.0146   -4.6747    0.0000 C   0  0
    4.2107   -6.1619    0.0000 N   0  0
    2.8570   -6.8080    0.0000 O   0  0
    1.8242   -5.7201    0.0000 N   0  0
    2.5536   -4.4230    0.0000 C   0  0
    1.8032   -3.1233    0.0000 C   0  0
    2.4133   -1.7530    0.0000 N   0  0
    1.2990   -0.7500    0.0000 C   0  0
    1.2990    0.7500    0.0000 C   0  0
    0.0000    1.5000    0.0000 C   0  0
   -1.2990    0.7500    0.0000 C   0  0
   -1.2990   -0.7500    0.0000 C   0  0
    0.0000   -1.5000    0.0000 C   0  0
    0.3114   -2.9665    0.0000 N   0  0
   -0.6890   -4.0818    0.0000 C   0  0
   -2.1578   -3.7735    0.0000 C   0  0
   -3.1610   -4.8886    0.0000 C   0  0
   -4.6284   -4.5775    0.0000 C   0  0
   -5.0926   -3.1511    0.0000 C   0  0
   -4.0895   -2.0359    0.0000 C   0  0
   -4.5539   -0.6088    0.0000 C   0  0
   -6.0211   -0.2967    0.0000 F   0  0
   -3.5504    0.5061    0.0000 F   0  0
   -5.0175    0.8178    0.0000 F   0  0
   -2.6221   -2.3471    0.0000 C   0  0
  1  2  1  0
  2  3  2  0
  3  4  1  0
  4  5  1  0
  5  6  2  0
  6  2  1  0
  6  7  1  0
  7  8  2  0
  8  9  1  0
  9 10  2  0
 10 11  1  0
 11 12  2  0
 12 13  1  0
 13 14  2  0
 14  9  1  0
 14 15  1  0
 15  7  1  0
 15 16  1  0
 16 17  1  0
 17 18  2  0
 18 19  1  0
 19 20  2  0
 20 21  1  0
 21 22  1  0
 22 23  1  0
 22 24  1  0
 22 25  1  0
 21 26  2  0
 26 17  1  0
M  END
> <Smiles>
Nc1nonc1-c1nc2ccccc2n1Cc1cccc(C(F)(F)F)c1

> <ID>
CHEMBL3422134

> <standard_value>
512.86

> <IC50_uM>
0.51286

> <Activity>
Yes

> <pIC50>
6.290001172

> <BCI>
1

$$$$

  SciTegic03012415362D

 29 33  0  0  0  0            999 V2000
    5.5767   -9.1940    0.0000 C   0  0
    4.0767   -9.1910    0.0000 O   0  0
    3.3281   -7.8901    0.0000 C   0  0
    4.0826   -6.5937    0.0000 C   0  0
    3.3372   -5.2921    0.0000 C   0  0
    3.8056   -3.8679    0.0000 C   0  0
    2.5951   -3.0039    0.0000 C   0  0
    2.5973   -1.5031    0.0000 C   0  0
    3.8976   -0.7553    0.0000 O   0  0
    1.2990   -0.7500    0.0000 N   0  0
    1.2990    0.7500    0.0000 C   0  0
    2.5981    1.5000    0.0000 C   0  0
    2.5981    3.0000    0.0000 C   0  0
    1.2990    3.7500    0.0000 C   0  0
    0.0000    3.0000    0.0000 C   0  0
    0.0000    1.5000    0.0000 C   0  0
   -1.2990    0.7500    0.0000 S   0  0
   -1.2990   -0.7500    0.0000 C   0  0
   -2.5981   -1.5000    0.0000 C   0  0
   -2.5981   -3.0000    0.0000 C   0  0
   -1.2990   -3.7500    0.0000 C   0  0
    0.0000   -3.0000    0.0000 C   0  0
    0.0000   -1.5000    0.0000 C   0  0
    1.3786   -3.8595    0.0000 N   0  0
    1.8372   -5.2869    0.0000 C   0  0
    1.0827   -6.5833    0.0000 C   0  0
    1.8281   -7.8849    0.0000 C   0  0
    1.0705   -9.1805    0.0000 O   0  0
   -0.4294   -9.1732    0.0000 C   0  0
  1  2  1  0
  2  3  1  0
  3  4  2  0
  4  5  1  0
  5  6  1  0
  6  7  2  0
  7  8  1  0
  8  9  2  0
  8 10  1  0
 10 11  1  0
 11 12  2  0
 12 13  1  0
 13 14  2  0
 14 15  1  0
 15 16  2  0
 16 11  1  0
 16 17  1  0
 17 18  1  0
 18 19  2  0
 19 20  1  0
 20 21  2  0
 21 22  1  0
 22 23  2  0
 23 18  1  0
 23 10  1  0
  7 24  1  0
 24 25  1  0
 25  5  2  0
 25 26  1  0
 26 27  2  0
 27  3  1  0
 27 28  1  0
 28 29  1  0
M  END
> <Smiles>
COc1cc2cc(C(=O)N3c4ccccc4Sc4ccccc43)[nH]c2cc1OC

> <ID>
CHEMBL2337950

> <standard_value>
517

> <IC50_uM>
0.517

> <Activity>
Yes

> <pIC50>
6.286509457

> <BCI>
1

$$$$

  SciTegic03012415362D

 28 31  0  0  0  0            999 V2000
    9.3589  -12.5588    0.0000 C   0  0
    7.8595  -12.5998    0.0000 O   0  0
    7.0730  -11.3216    0.0000 C   0  0
    7.7891  -10.0035    0.0000 C   0  0
    7.0056   -8.7244    0.0000 C   0  0
    5.5111   -8.7640    0.0000 C   0  0
    4.6332   -7.5468    0.0000 C   0  0
    5.1017   -6.1218    0.0000 C   0  0
    3.8912   -5.2578    0.0000 C   0  0
    3.8933   -3.7570    0.0000 C   0  0
    2.5951   -3.0039    0.0000 C   0  0
    2.5973   -1.5031    0.0000 C   0  0
    3.8976   -0.7553    0.0000 O   0  0
    1.2990   -0.7500    0.0000 C   0  0
    1.2990    0.7500    0.0000 C   0  0
    0.0000    1.5000    0.0000 C   0  0
   -1.2990    0.7500    0.0000 C   0  0
   -1.2990   -0.7500    0.0000 C   0  0
    0.0000   -1.5000    0.0000 C   0  0
   -2.7248   -1.2135    0.0000 O   0  0
   -3.6065    0.0000    0.0000 C   0  0
   -2.7248    1.2135    0.0000 O   0  0
    2.6747   -6.1134    0.0000 N   0  0
    3.1332   -7.5416    0.0000 N   0  0
    4.7901  -10.0813    0.0000 C   0  0
    5.5735  -11.3605    0.0000 C   0  0
    4.8543  -12.6778    0.0000 O   0  0
    3.3548  -12.7145    0.0000 C   0  0
  1  2  1  0
  2  3  1  0
  3  4  2  0
  4  5  1  0
  5  6  2  0
  6  7  1  0
  7  8  1  0
  8  9  2  0
  9 10  1  0
 10 11  2  0
 11 12  1  0
 12 13  2  0
 12 14  1  0
 14 15  2  0
 15 16  1  0
 16 17  2  0
 17 18  1  0
 18 19  2  0
 19 14  1  0
 18 20  1  0
 20 21  1  0
 21 22  1  0
 22 17  1  0
  9 23  1  0
 23 24  1  0
 24  7  2  0
  6 25  1  0
 25 26  2  0
 26  3  1  0
 26 27  1  0
 27 28  1  0
M  END
> <Smiles>
COc1ccc(-c2cc(/C=C/C(=O)c3ccc4c(c3)OCO4)[nH]n2)cc1OC

> <ID>
CHEMBL4159669

> <standard_value>
520

> <IC50_uM>
0.52

> <Activity>
Yes

> <pIC50>
6.283996656

> <BCI>
1

$$$$

  SciTegic03012415362D

 40 45  0  0  1  0            999 V2000
   10.5197   -9.9259    0.0000 C   0  0
   10.1838   -8.4640    0.0000 O   0  0
   11.2819   -7.4409    0.0000 C   0  0
   12.7152   -7.8831    0.0000 C   0  0
   13.8148   -6.8628    0.0000 C   0  0
   15.2489   -7.3052    0.0000 C   0  0
   15.7151   -8.7175    0.0000 N   0  0
   17.2141   -8.6925    0.0000 C   0  0
   18.2360   -9.7904    0.0000 C   0  0
   19.6979   -9.4544    0.0000 C   0  0
   20.1378   -8.0203    0.0000 C   0  0
   19.1158   -6.9223    0.0000 C   0  0
   17.6539   -7.2584    0.0000 C   0  0
   16.4268   -6.3972    0.0000 S   0  0
   13.4811   -5.4004    0.0000 C   0  0
   12.0477   -4.9583    0.0000 C   0  0
   10.9480   -5.9785    0.0000 C   0  0
    9.5148   -5.5332    0.0000 O   0  0
    9.1829   -4.0695    0.0000 C   0  0
    7.7497   -3.6242    0.0000 C   0  0
    7.4178   -2.1605    0.0000 C   0  0
    5.9845   -1.7152    0.0000 C   0  0
    5.6526   -0.2515    0.0000 O   0  0
    4.2194    0.1938    0.0000 C   0  0
    3.1198   -0.8265    0.0000 C   0  0
    1.6852   -0.3846    0.0000 C   0  0
    1.3514    1.0778    0.0000 C   0  0
    2.4522    2.0983    0.0000 C   0  0
    3.8856    1.6562    0.0000 C   0  0
    4.9837    2.6793    0.0000 O   0  0
    4.6478    4.1412    0.0000 C   0  0
    0.0000    1.7286    0.0000 C   0  0
    0.0000    3.2286    0.0000 O   0  0
   -1.3515    1.0777    0.0000 N   0  0
   -2.6395    1.8472    0.0000 C   0  0
   -3.7691    0.8603    0.0000 C   0  0
   -3.1796   -0.5190    0.0000 C   0  0
   -1.6852   -0.3847    0.0000 C   0  0  1  0  0  0
   -0.7500   -1.5574    0.0000 C   0  0
    0.7500   -1.5574    0.0000 N   0  0
  1  2  1  0
  2  3  1  0
  3  4  2  0
  4  5  1  0
  5  6  1  0
  6  7  2  0
  7  8  1  0
  8  9  2  0
  9 10  1  0
 10 11  2  0
 11 12  1  0
 12 13  2  0
 13  8  1  0
 13 14  1  0
 14  6  1  0
  5 15  2  0
 15 16  1  0
 16 17  2  0
 17  3  1  0
 17 18  1  0
 18 19  1  0
 19 20  1  0
 20 21  1  0
 21 22  1  0
 22 23  1  0
 23 24  1  0
 24 25  2  0
 25 26  1  0
 26 27  2  0
 27 28  1  0
 28 29  2  0
 29 24  1  0
 29 30  1  0
 30 31  1  0
 27 32  1  0
 32 33  2  0
 32 34  1  0
 34 35  1  0
 35 36  1  0
 36 37  1  0
 38 37  1  6
 38 34  1  0
 38 39  1  0
 39 40  2  0
 40 26  1  0
M  END
> <Smiles>
COc1cc(-c2nc3ccccc3s2)ccc1OCCCCOc1cc2c(cc1OC)C(=O)N1CCC[C@H]1C=N2

> <ID>
CHEMBL1172181

> <standard_value>
537.03

> <IC50_uM>
0.53703

> <Activity>
Yes

> <pIC50>
6.270001453

> <BCI>
1

$$$$

  SciTegic03012415362D

 31 32  0  0  1  0            999 V2000
   -3.6871   -9.3867    0.0000 C   0  0
   -2.5315   -8.4303    0.0000 C   0  0
   -2.7812   -6.9504    0.0000 O   0  0
   -1.6250   -5.9935    0.0000 P   0  0
   -0.2192   -6.5165    0.0000 O   0  0
   -1.8747   -4.5136    0.0000 C   0  0
   -0.7185   -3.5567    0.0000 C   0  0
   -0.9682   -2.0768    0.0000 Se  0  0
    0.1900   -1.1200    0.0000 C   0  0  2  0  0  0
    1.3300   -1.6300    0.0000 C   0  0
    2.3100   -1.1700    0.0000 C   0  0
    3.5183   -2.0588    0.0000 O   0  0
    2.5200    0.3600    0.0000 O   0  0
    4.1500    0.6800    0.0000 C   0  0  1  0  0  0
    5.3192   -0.2597    0.0000 C   0  0
    4.1100    2.4200    0.0000 C   0  0
    2.6000    2.8000    0.0000 C   0  0
    2.3100    4.3400    0.0000 C   0  0
    0.3300    4.3600    0.0000 C   0  0
    0.0000    2.8600    0.0000 C   0  0
   -1.5600    2.3300    0.0000 C   0  0  2  0  0  0
   -3.0100    2.8100    0.0000 C   0  0
   -3.9100    1.5700    0.0000 C   0  0  2  0  0  0
   -5.4100    1.5671    0.0000 O   0  0
   -3.0100    0.3400    0.0000 C   0  0
   -1.5600    0.8100    0.0000 C   0  0  1  0  0  0
    0.0000    0.3600    0.0000 C   0  0  2  0  0  0
    1.1387    1.3364    0.0000 O   0  0
   -1.3679   -7.5017    0.0000 O   0  0
    0.0392   -8.0238    0.0000 C   0  0
    0.2913   -9.5025    0.0000 C   0  0
  1  2  1  0
  2  3  1  0
  3  4  1  0
  4  5  2  0
  4  6  1  0
  6  7  1  0
  7  8  1  0
  9  8  1  1
  9 10  1  0
 10 11  1  0
 11 12  2  0
 11 13  1  0
 13 14  1  0
 14 15  1  6
 14 16  1  0
 16 17  1  0
 17 18  1  0
 18 19  1  0
 19 20  2  0
 21 20  1  1
 21 22  1  0
 22 23  1  0
 23 24  1  1
 23 25  1  0
 26 25  1  6
 26 21  1  0
 26 27  1  0
 27  9  1  0
 27 28  1  6
  4 29  1  0
 29 30  1  0
 30 31  1  0
M  END
> <Smiles>
CCOP(=O)(CC[Se][C@@H]1CC(=O)O[C@@H](C)CCC/C=C/[C@@H]2C[C@H](O)C[C@H]2[C@@H]1O)OCC

> <ID>
CHEMBL129746

> <standard_value>
540

> <IC50_uM>
0.54

> <Activity>
Yes

> <pIC50>
6.26760624

> <BCI>
1

$$$$

  SciTegic03012415362D

 27 28  0  0  1  0            999 V2000
    5.3192   -0.2597    0.0000 C   0  0
    4.1500    0.6800    0.0000 C   0  0  1  0  0  0
    2.5200    0.3600    0.0000 C   0  0
    2.3100   -1.1700    0.0000 C   0  0
    1.3300   -1.6300    0.0000 C   0  0
    0.1900   -1.1200    0.0000 C   0  0
    0.0000    0.3600    0.0000 C   0  0
   -1.5600    0.8100    0.0000 C   0  0  2  0  0  0
   -3.0100    0.3400    0.0000 C   0  0
   -3.9100    1.5700    0.0000 C   0  0  2  0  0  0
   -5.4079    1.5624    0.0000 O   0  0
   -6.1525    0.2593    0.0000 C   0  0
   -5.3962   -1.0361    0.0000 O   0  0
   -7.6533    0.2516    0.0000 C   0  0
   -8.3978   -1.0515    0.0000 C   0  0
   -9.8986   -1.0592    0.0000 C   0  0
  -10.6428   -2.3616    0.0000 O   0  0
  -10.6549    0.2362    0.0000 O   0  0
   -3.0100    2.8100    0.0000 C   0  0
   -1.5600    2.3300    0.0000 C   0  0  1  0  0  0
    0.0000    2.8600    0.0000 C   0  0  2  0  0  0
    1.1178    1.8598    0.0000 O   0  0
    0.3300    4.3600    0.0000 C   0  0
    2.3100    4.3400    0.0000 C   0  0
    2.6310    5.8738    0.0000 C   0  0
    2.2348    4.4271    0.0000 O   0  0
    4.1100    2.4200    0.0000 O   0  0
  2  1  1  1
  2  3  1  0
  3  4  1  0
  4  5  1  0
  5  6  1  0
  6  7  2  0
  8  7  1  6
  8  9  1  0
  9 10  1  0
 10 11  1  6
 11 12  1  0
 12 13  2  0
 12 14  1  0
 14 15  1  0
 15 16  1  0
 16 17  2  0
 16 18  1  0
 10 19  1  0
 20 19  1  1
 20  8  1  0
 20 21  1  0
 21 22  1  1
 21 23  1  0
 23 24  2  0
 24 25  1  0
 25 26  2  0
 25 27  1  0
 27  2  1  0
M  END
> <Smiles>
C[C@H]1CCC/C=C/[C@@H]2C[C@H](OC(=O)CCC(=O)O)C[C@H]2[C@H](O)/C=C/C(=O)O1

> <ID>
CHEMBL114717

> <standard_value>
540

> <IC50_uM>
0.54

> <Activity>
Yes

> <pIC50>
6.26760624

> <BCI>
1

$$$$

  SciTegic03012415362D

 36 40  0  0  0  0            999 V2000
    3.8983   -0.7459    0.0000 C   0  0
    2.6003   -1.4977    0.0000 O   0  0
    1.2990   -0.7500    0.0000 C   0  0
    1.2990    0.7500    0.0000 C   0  0
    0.0000    1.5000    0.0000 C   0  0
    0.0000    3.0000    0.0000 C   0  0
   -1.2991    3.7500    0.0000 C   0  0
   -2.5981    3.0000    0.0000 N   0  0
   -3.8994    3.7477    0.0000 C   0  0
   -5.1981    2.9954    0.0000 C   0  0
   -6.4994    3.7432    0.0000 C   0  0
   -7.7981    2.9909    0.0000 N   0  0
   -9.0994    3.7386    0.0000 C   0  0
  -10.3980    2.9864    0.0000 C   0  0
  -11.6993    3.7341    0.0000 N   0  0
  -12.9980    2.9818    0.0000 C   0  0
  -14.2993    3.7295    0.0000 C   0  0
  -15.5973    2.9777    0.0000 N   0  0
   -2.5981    1.5000    0.0000 C   0  0
   -3.8971    0.7500    0.0000 O   0  0
   -1.2990    0.7500    0.0000 C   0  0
   -1.2990   -0.7500    0.0000 C   0  0
    0.0000   -1.5000    0.0000 C   0  0
   -0.0031   -3.0008    0.0000 O   0  0
   -1.3032   -3.7490    0.0000 C   0  0
   -0.9876    5.2165    0.0000 C   0  0
   -1.8692    6.4288    0.0000 C   0  0
   -1.2591    7.7991    0.0000 C   0  0
    0.2327    7.9559    0.0000 C   0  0
    1.1144    6.7424    0.0000 C   0  0
    0.5042    5.3733    0.0000 C   0  0
    1.1143    4.0030    0.0000 C   0  0
    2.5815    3.6910    0.0000 O   0  0
    0.5446    9.4223    0.0000 O   0  0
   -0.7544   10.1723    0.0000 C   0  0
   -1.8691    9.1686    0.0000 O   0  0
  1  2  1  0
  2  3  1  0
  3  4  2  0
  4  5  1  0
  5  6  1  0
  6  7  2  0
  7  8  1  0
  8  9  1  0
  9 10  1  0
 10 11  1  0
 11 12  1  0
 12 13  1  0
 13 14  1  0
 14 15  1  0
 15 16  1  0
 16 17  1  0
 17 18  1  0
  8 19  1  0
 19 20  2  0
 19 21  1  0
 21  5  2  0
 21 22  1  0
 22 23  2  0
 23  3  1  0
 23 24  1  0
 24 25  1  0
  7 26  1  0
 26 27  2  0
 27 28  1  0
 28 29  2  0
 29 30  1  0
 30 31  2  0
 31 26  1  0
 31 32  1  0
 32  6  1  0
 32 33  2  0
 29 34  1  0
 34 35  1  0
 35 36  1  0
 36 28  1  0
M  END
> <Smiles>
COc1cc2c3c(n(CCCNCCNCCN)c(=O)c2cc1OC)-c1cc2c(cc1C3=O)OCO2.Cl.Cl.Cl

> <ID>
CHEMBL153697

> <standard_value>
550

> <IC50_uM>
0.55

> <Activity>
Yes

> <pIC50>
6.259637311

> <BCI>
1

> <RemovedSalts>
HCl
HCl
HCl

$$$$

  SciTegic03012415362D

 38 43  0  0  0  0            999 V2000
    3.8983   -0.7459    0.0000 C   0  0
    2.6003   -1.4977    0.0000 O   0  0
    1.2990   -0.7500    0.0000 C   0  0
    1.2990    0.7500    0.0000 C   0  0
    0.0000    1.5000    0.0000 C   0  0
    0.0000    3.0000    0.0000 C   0  0
   -1.2991    3.7500    0.0000 C   0  0
   -2.5981    3.0000    0.0000 N   0  0
   -3.8994    3.7477    0.0000 C   0  0
   -5.1981    2.9954    0.0000 C   0  0
   -6.4994    3.7432    0.0000 C   0  0
   -7.7981    2.9909    0.0000 N   0  0
   -9.0994    3.7386    0.0000 C   0  0
  -10.3980    2.9864    0.0000 C   0  0
  -11.6993    3.7341    0.0000 N   0  0
  -12.9984    2.9841    0.0000 C   0  0
  -14.2975    3.7341    0.0000 C   0  0
  -14.2975    5.2341    0.0000 O   0  0
  -12.9985    5.9841    0.0000 C   0  0
  -11.6994    5.2342    0.0000 C   0  0
   -2.5981    1.5000    0.0000 C   0  0
   -3.8971    0.7500    0.0000 O   0  0
   -1.2990    0.7500    0.0000 C   0  0
   -1.2990   -0.7500    0.0000 C   0  0
    0.0000   -1.5000    0.0000 C   0  0
   -0.0031   -3.0008    0.0000 O   0  0
   -1.3032   -3.7490    0.0000 C   0  0
   -0.9876    5.2165    0.0000 C   0  0
   -1.8692    6.4288    0.0000 C   0  0
   -1.2591    7.7991    0.0000 C   0  0
    0.2327    7.9559    0.0000 C   0  0
    1.1144    6.7424    0.0000 C   0  0
    0.5042    5.3733    0.0000 C   0  0
    1.1143    4.0030    0.0000 C   0  0
    2.5815    3.6910    0.0000 O   0  0
    0.5446    9.4223    0.0000 O   0  0
   -0.7544   10.1723    0.0000 C   0  0
   -1.8691    9.1686    0.0000 O   0  0
  1  2  1  0
  2  3  1  0
  3  4  2  0
  4  5  1  0
  5  6  1  0
  6  7  2  0
  7  8  1  0
  8  9  1  0
  9 10  1  0
 10 11  1  0
 11 12  1  0
 12 13  1  0
 13 14  1  0
 14 15  1  0
 15 16  1  0
 16 17  1  0
 17 18  1  0
 18 19  1  0
 19 20  1  0
 20 15  1  0
  8 21  1  0
 21 22  2  0
 21 23  1  0
 23  5  2  0
 23 24  1  0
 24 25  2  0
 25  3  1  0
 25 26  1  0
 26 27  1  0
  7 28  1  0
 28 29  2  0
 29 30  1  0
 30 31  2  0
 31 32  1  0
 32 33  2  0
 33 28  1  0
 33 34  1  0
 34  6  1  0
 34 35  2  0
 31 36  1  0
 36 37  1  0
 37 38  1  0
 38 30  1  0
M  END
> <Smiles>
COc1cc2c3c(n(CCCNCCN4CCOCC4)c(=O)c2cc1OC)-c1cc2c(cc1C3=O)OCO2

> <ID>
CHEMBL214995

> <standard_value>
550

> <IC50_uM>
0.55

> <Activity>
Yes

> <pIC50>
6.259637311

> <BCI>
1

$$$$

  SciTegic03012415362D

 23 26  0  0  0  0            999 V2000
   -2.4118  -11.0244    0.0000 C   0  0
   -2.2498   -9.5332    0.0000 C   0  0
   -0.8774   -8.9278    0.0000 C   0  0
   -0.7153   -7.4366    0.0000 C   0  0
    0.6566   -6.8281    0.0000 C   0  0
    0.8163   -5.3384    0.0000 C   0  0
   -0.2984   -4.3347    0.0000 C   0  0
    0.3114   -2.9665    0.0000 C   0  0
    1.8032   -3.1233    0.0000 C   0  0
    2.4133   -1.7530    0.0000 N   0  0
    1.2990   -0.7500    0.0000 C   0  0
    1.2990    0.7500    0.0000 C   0  0
    0.0000    1.5000    0.0000 C   0  0
   -1.2990    0.7500    0.0000 C   0  0
   -1.2990   -0.7500    0.0000 C   0  0
    0.0000   -1.5000    0.0000 C   0  0
    2.1153   -4.5884    0.0000 C   0  0
    3.4858   -5.1982    0.0000 O   0  0
   -1.9259   -6.5507    0.0000 C   0  0
   -3.2983   -7.1561    0.0000 C   0  0
   -4.5088   -6.2702    0.0000 C   0  0
   -3.4603   -8.6473    0.0000 C   0  0
   -4.8327   -9.2526    0.0000 O   0  0
  1  2  1  0
  2  3  2  0
  3  4  1  0
  4  5  1  0
  5  6  2  0
  6  7  1  0
  7  8  1  0
  8  9  2  0
  9 10  1  0
 10 11  1  0
 11 12  2  0
 12 13  1  0
 13 14  2  0
 14 15  1  0
 15 16  2  0
 16  8  1  0
 16 11  1  0
  9 17  1  0
 17  6  1  0
 17 18  2  0
  4 19  2  0
 19 20  1  0
 20 21  1  0
 20 22  2  0
 22  2  1  0
 22 23  1  0
M  END
> <Smiles>
Cc1cc(/C=C2\Cc3c([nH]c4ccccc34)C2=O)cc(C)c1O

> <ID>
CHEMBL3220351

> <standard_value>
550

> <IC50_uM>
0.55

> <Activity>
Yes

> <pIC50>
6.259637311

> <BCI>
1

$$$$

  SciTegic03012415362D

 29 32  0  0  0  0            999 V2000
    2.5951   -3.0031    0.0000 C   0  0
    2.5973   -1.5031    0.0000 O   0  0
    1.2990   -0.7500    0.0000 C   0  0
    1.2990    0.7500    0.0000 C   0  0
    0.0000    1.5000    0.0000 N   0  0
   -1.2990    0.7500    0.0000 C   0  0
   -1.2990   -0.7500    0.0000 C   0  0
    0.0000   -1.5000    0.0000 C   0  0
   -2.7248   -1.2135    0.0000 C   0  0
   -3.1882   -2.6402    0.0000 O   0  0
   -3.6065    0.0000    0.0000 C   0  0
   -2.7248    1.2135    0.0000 C   0  0
   -3.3339    2.5831    0.0000 N   0  0
   -2.4537    3.7988    0.0000 C   0  0
   -3.0656    5.1692    0.0000 C   0  0
   -2.1854    6.3848    0.0000 C   0  0
   -2.7972    7.7553    0.0000 N   0  0
   -1.9171    8.9709    0.0000 C   0  0
   -2.5286   10.3406    0.0000 C   0  0
   -0.4251    8.8161    0.0000 C   0  0
   -4.8257    2.7399    0.0000 C   0  0
   -5.4358    4.1102    0.0000 O   0  0
   -5.7073    1.5263    0.0000 C   0  0
   -7.1991    1.6831    0.0000 C   0  0
   -8.0808    0.4696    0.0000 C   0  0
   -9.5726    0.6264    0.0000 Cl  0  0
   -7.4707   -0.9007    0.0000 C   0  0
   -5.9789   -1.0575    0.0000 C   0  0
   -5.0972    0.1560    0.0000 C   0  0
  1  2  1  0
  2  3  1  0
  3  4  2  0
  4  5  1  0
  5  6  2  0
  6  7  1  0
  7  8  2  0
  8  3  1  0
  7  9  1  0
  9 10  2  0
  9 11  1  0
 11 12  2  0
 12  6  1  0
 12 13  1  0
 13 14  1  0
 14 15  1  0
 15 16  1  0
 16 17  1  0
 17 18  1  0
 18 19  1  0
 18 20  1  0
 13 21  1  0
 21 22  2  0
 21 23  1  0
 23 24  2  0
 24 25  1  0
 25 26  1  0
 25 27  2  0
 27 28  1  0
 28 29  2  0
 29 11  1  0
 29 23  1  0
M  END
> <Smiles>
COc1cnc2c(c1)C(=O)c1c-2n(CCCNC(C)C)c(=O)c2cc(Cl)ccc12

> <ID>
CHEMBL4064072

> <standard_value>
554

> <IC50_uM>
0.554

> <Activity>
Yes

> <pIC50>
6.256490235

> <BCI>
1

$$$$

  SciTegic03012415362D

 20 21  0  0  0  0            999 V2000
    1.7886  -10.9203    0.0000 C   0  0
    2.5405   -9.6223    0.0000 C   0  0
    1.7928   -8.3210    0.0000 C   0  0
    2.5451   -7.0223    0.0000 O   0  0
    1.7974   -5.7210    0.0000 C   0  0
    0.2974   -5.7184    0.0000 O   0  0
    2.5497   -4.4224    0.0000 N   0  0
    1.8032   -3.1233    0.0000 C   0  0
    2.4133   -1.7530    0.0000 N   0  0
    1.2990   -0.7500    0.0000 C   0  0
    1.2990    0.7500    0.0000 C   0  0
    0.0000    1.5000    0.0000 C   0  0
   -1.2990    0.7500    0.0000 C   0  0
   -2.6003    1.4977    0.0000 S   0  0
   -3.8990    0.7455    0.0000 C   0  0
   -5.2003    1.4932    0.0000 C   0  0
   -6.4983    0.7413    0.0000 C   0  0
   -1.2990   -0.7500    0.0000 C   0  0
    0.0000   -1.5000    0.0000 C   0  0
    0.3114   -2.9665    0.0000 S   0  0
  1  2  1  0
  2  3  1  0
  3  4  1  0
  4  5  1  0
  5  6  2  0
  5  7  1  0
  7  8  1  0
  8  9  2  0
  9 10  1  0
 10 11  2  0
 11 12  1  0
 12 13  2  0
 13 14  1  0
 14 15  1  0
 15 16  1  0
 16 17  1  0
 13 18  1  0
 18 19  2  0
 19 10  1  0
 19 20  1  0
 20  8  1  0
M  END
> <Smiles>
CCCOC(=O)Nc1nc2ccc(SCCC)cc2s1

> <ID>
CHEMBL4288446

> <standard_value>
560

> <IC50_uM>
0.56

> <Activity>
Yes

> <pIC50>
6.251811973

> <BCI>
1

$$$$

  SciTegic03012415362D

 48 55  0  0  1  0            999 V2000
    5.1996   -1.4928    0.0000 C   0  0
    3.8990   -0.7455    0.0000 C   0  0
    2.6003   -1.4977    0.0000 O   0  0
    1.2990   -0.7500    0.0000 C   0  0
    1.2990    0.7500    0.0000 C   0  0
    0.0000    1.5000    0.0000 C   0  0
   -1.2990    0.7500    0.0000 C   0  0
   -1.2990   -0.7500    0.0000 C   0  0
    0.0000   -1.5000    0.0000 C   0  0
    0.0000   -3.0000    0.0000 O   0  0
   -2.5981    1.5000    0.0000 C   0  0
   -2.5981    3.0000    0.0000 C   0  0
   -1.2991    3.7500    0.0000 C   0  0  2  0  0  0
    0.0000    3.0000    0.0000 C   0  0  2  0  0  0
    1.2990    3.7500    0.0000 C   0  0
    1.2990    5.2500    0.0000 C   0  0
    0.0000    6.0000    0.0000 C   0  0  2  0  0  0
    1.2211    6.8711    0.0000 C   0  0
   -0.2851    7.4666    0.0000 C   0  0  1  0  0  0
    0.7337    8.5650    0.0000 O   0  0
    2.1972    8.2322    0.0000 S   0  0
    2.6400    6.7990    0.0000 O   0  0
    3.2178    9.3325    0.0000 O   0  0
    4.6813    8.9997    0.0000 C   0  0  1  0  0  0
    5.2553    7.6286    0.0000 C   0  0
    6.7486    7.7701    0.0000 C   0  0
    7.0867    9.2260    0.0000 C   0  0  1  0  0  0
    8.3886    9.9710    0.0000 C   0  0  2  0  0  0
    9.6848    9.2160    0.0000 C   0  0
   10.9867    9.9611    0.0000 C   0  0
   10.9924   11.4611    0.0000 C   0  0
   12.2943   12.2061    0.0000 C   0  0
   12.3001   13.7061    0.0000 C   0  0
   13.6019   14.4511    0.0000 O   0  0
   11.0039   14.4610    0.0000 C   0  0
   11.0065   15.9619    0.0000 O   0  0
    9.7086   16.7154    0.0000 C   0  0
    9.7112   18.2154    0.0000 C   0  0
    9.7020   13.7160    0.0000 C   0  0
    9.6963   12.2160    0.0000 C   0  0
    8.3944   11.4710    0.0000 C   0  0  1  0  0  0
    7.0982   12.2259    0.0000 C   0  0
    5.7963   11.4809    0.0000 C   0  0
    5.7906    9.9809    0.0000 C   0  0  2  0  0  0
    4.4241   10.5997    0.0000 C   0  0
   -1.7759    7.6329    0.0000 C   0  0
   -2.3947    6.2665    0.0000 C   0  0
   -1.2991    5.2500    0.0000 C   0  0  1  0  0  0
  1  2  1  0
  2  3  1  0
  3  4  1  0
  4  5  2  0
  5  6  1  0
  6  7  2  0
  7  8  1  0
  8  9  2  0
  9  4  1  0
  9 10  1  0
  7 11  1  0
 11 12  1  0
 13 12  1  1
 13 14  1  0
 14  6  1  0
 14 15  1  6
 15 16  1  0
 16 17  1  0
 17 18  1  6
 17 19  1  0
 19 20  1  6
 20 21  1  0
 21 22  2  0
 21 23  1  0
 24 23  1  6
 24 25  1  0
 25 26  1  0
 27 26  1  6
 27 28  1  0
 28 29  1  1
 29 30  1  0
 30 31  1  0
 31 32  2  0
 32 33  1  0
 33 34  1  0
 33 35  2  0
 35 36  1  0
 36 37  1  0
 37 38  1  0
 35 39  1  0
 39 40  2  0
 40 31  1  0
 40 41  1  0
 41 28  1  0
 41 42  1  6
 42 43  1  0
 43 44  1  0
 44 24  1  0
 44 27  1  0
 44 45  1  6
 19 46  1  0
 46 47  1  0
 48 47  1  6
 48 13  1  0
 48 17  1  0
M  END
> <Smiles>
CCOc1cc2c(cc1O)CC[C@@H]1[C@@H]2CC[C@]2(C)[C@@H](OS(=O)O[C@H]3CC[C@H]4[C@@H]5CCc6cc(O)c(OCC)cc6[C@H]5CC[C@]34C)CC[C@@H]12

> <ID>
CHEMBL1627882

> <standard_value>
570

> <IC50_uM>
0.57

> <Activity>
Yes

> <pIC50>
6.244125144

> <BCI>
1

$$$$

  SciTegic03012415362D

 27 30  0  0  0  0            999 V2000
    2.5951   -3.0031    0.0000 C   0  0
    2.5973   -1.5031    0.0000 O   0  0
    1.2990   -0.7500    0.0000 C   0  0
    1.2990    0.7500    0.0000 C   0  0
    0.0000    1.5000    0.0000 N   0  0
   -1.2990    0.7500    0.0000 C   0  0
   -1.2990   -0.7500    0.0000 C   0  0
    0.0000   -1.5000    0.0000 C   0  0
   -2.7248   -1.2135    0.0000 C   0  0
   -3.1882   -2.6402    0.0000 O   0  0
   -3.6065    0.0000    0.0000 C   0  0
   -2.7248    1.2135    0.0000 C   0  0
   -3.3339    2.5831    0.0000 N   0  0
   -2.4537    3.7988    0.0000 C   0  0
   -3.0656    5.1692    0.0000 C   0  0
   -2.1854    6.3848    0.0000 C   0  0
   -2.7972    7.7553    0.0000 N   0  0
   -1.9176    8.9703    0.0000 C   0  0
   -4.2892    7.9101    0.0000 C   0  0
   -4.8257    2.7399    0.0000 C   0  0
   -5.4358    4.1102    0.0000 O   0  0
   -5.7073    1.5263    0.0000 C   0  0
   -7.1991    1.6831    0.0000 C   0  0
   -8.0808    0.4696    0.0000 C   0  0
   -7.4707   -0.9007    0.0000 C   0  0
   -5.9789   -1.0575    0.0000 C   0  0
   -5.0972    0.1560    0.0000 C   0  0
  1  2  1  0
  2  3  1  0
  3  4  2  0
  4  5  1  0
  5  6  2  0
  6  7  1  0
  7  8  2  0
  8  3  1  0
  7  9  1  0
  9 10  2  0
  9 11  1  0
 11 12  2  0
 12  6  1  0
 12 13  1  0
 13 14  1  0
 14 15  1  0
 15 16  1  0
 16 17  1  0
 17 18  1  0
 17 19  1  0
 13 20  1  0
 20 21  2  0
 20 22  1  0
 22 23  2  0
 23 24  1  0
 24 25  2  0
 25 26  1  0
 26 27  2  0
 27 11  1  0
 27 22  1  0
M  END
> <Smiles>
COc1cnc2c(c1)C(=O)c1c-2n(CCCN(C)C)c(=O)c2ccccc12

> <ID>
CHEMBL2024285

> <standard_value>
570

> <IC50_uM>
0.57

> <Activity>
Yes

> <pIC50>
6.244125144

> <BCI>
1

$$$$

  SciTegic03012415362D

 25 27  0  0  1  0            999 V2000
    6.4983   -0.7414    0.0000 C   0  0
    5.2003   -1.4932    0.0000 O   0  0
    3.8990   -0.7455    0.0000 C   0  0
    3.8964    0.7545    0.0000 O   0  0
    2.6003   -1.4977    0.0000 C   0  0
    1.2990   -0.7500    0.0000 C   0  0
    1.2990    0.7500    0.0000 C   0  0
    0.0000    1.5000    0.0000 C   0  0
   -1.2990    0.7500    0.0000 C   0  0  1  0  0  0
   -1.2990   -0.7500    0.0000 C   0  0  1  0  0  0
   -2.5981   -1.5000    0.0000 C   0  0
   -3.8971   -0.7500    0.0000 C   0  0
   -5.1961   -1.5000    0.0000 O   0  0
   -3.8971    0.7500    0.0000 C   0  0  1  0  0  0
   -5.1962    1.5000    0.0000 C   0  0
   -5.1608    0.0004    0.0000 C   0  0
   -6.4772    2.2803    0.0000 C   0  0
   -5.1962    3.0000    0.0000 C   0  0
   -6.4952    3.7500    0.0000 O   0  0
   -3.8971    3.7500    0.0000 C   0  0
   -2.5981    3.0000    0.0000 C   0  0
   -2.5981    1.5000    0.0000 C   0  0  2  0  0  0
   -1.2990    2.2500    0.0000 C   0  0
    0.0000   -1.5000    0.0000 C   0  0  1  0  0  0
    0.0000   -3.0000    0.0000 C   0  0
  1  2  1  0
  2  3  1  0
  3  4  2  0
  3  5  1  0
  5  6  2  0
  6  7  1  0
  7  8  1  0
  9  8  1  1
  9 10  1  0
 10 11  1  6
 11 12  1  0
 12 13  2  0
 14 12  1  1
 14 15  1  0
 15 16  1  0
 15 17  1  0
 15 18  1  0
 18 19  2  0
 18 20  1  0
 20 21  1  0
 21 22  1  0
 22  9  1  0
 22 14  1  0
 22 23  1  1
 10 24  1  0
 24  6  1  0
 24 25  1  6
M  END
> <Smiles>
COC(=O)/C=C1\CC[C@H]2[C@@H](CC(=O)[C@H]3C(C)(C)C(=O)CC[C@]23C)[C@H]1C

> <ID>
CHEMBL4475090

> <standard_value>
575.44

> <IC50_uM>
0.57544

> <Activity>
Yes

> <pIC50>
6.239999953

> <BCI>
1

$$$$

  SciTegic03012415362D

 25 29  0  0  0  0            999 V2000
    3.8976   -0.7553    0.0000 O   0  0
    2.5973   -1.5031    0.0000 C   0  0
    1.2990   -0.7500    0.0000 C   0  0
    1.2990    0.7500    0.0000 C   0  0
    0.0000    1.5000    0.0000 C   0  0
   -1.2990    0.7500    0.0000 C   0  0
   -1.2990   -0.7500    0.0000 C   0  0
    0.0000   -1.5000    0.0000 C   0  0
   -2.5981   -1.5000    0.0000 S   0  0
   -3.8971   -0.7500    0.0000 C   0  0
   -5.1962   -1.5000    0.0000 C   0  0
   -6.4952   -0.7500    0.0000 C   0  0
   -6.4952    0.7500    0.0000 C   0  0
   -5.1962    1.5000    0.0000 C   0  0
   -3.8971    0.7500    0.0000 C   0  0
   -2.5981    1.5000    0.0000 N   0  0
    2.5951   -3.0039    0.0000 C   0  0
    1.3788   -3.8597    0.0000 C   0  0
    1.8376   -5.2878    0.0000 N   0  0
    3.3368   -5.2925    0.0000 C   0  0
    4.3368   -6.4106    0.0000 C   0  0
    5.8050   -6.1036    0.0000 C   0  0
    6.2733   -4.6785    0.0000 C   0  0
    5.2733   -3.5605    0.0000 C   0  0
    3.8050   -3.8675    0.0000 C   0  0
  1  2  2  0
  2  3  1  0
  3  4  2  0
  4  5  1  0
  5  6  2  0
  6  7  1  0
  7  8  2  0
  8  3  1  0
  7  9  1  0
  9 10  1  0
 10 11  2  0
 11 12  1  0
 12 13  2  0
 13 14  1  0
 14 15  2  0
 15 10  1  0
 15 16  1  0
 16  6  1  0
  2 17  1  0
 17 18  2  0
 18 19  1  0
 19 20  1  0
 20 21  2  0
 21 22  1  0
 22 23  2  0
 23 24  1  0
 24 25  2  0
 25 17  1  0
 25 20  1  0
M  END
> <Smiles>
O=C(c1ccc2c(c1)Sc1ccccc1N2)c1c[nH]c2ccccc12

> <ID>
CHEMBL2337949

> <standard_value>
576

> <IC50_uM>
0.576

> <Activity>
Yes

> <pIC50>
6.239577517

> <BCI>
1

$$$$

  SciTegic03012415362D

 29 33  0  0  1  0            999 V2000
    2.5981    0.0000    0.0000 C   0  0
    1.2990   -0.7500    0.0000 C   0  0  2  0  0  0
    1.2990    0.7500    0.0000 C   0  0
    0.0000    1.5000    0.0000 C   0  0
   -1.2990    0.7500    0.0000 C   0  0  2  0  0  0
   -2.5981    1.5000    0.0000 O   0  0
   -1.2990   -0.7500    0.0000 C   0  0
    0.0000   -1.5000    0.0000 C   0  0
    0.0000   -3.0000    0.0000 C   0  0
    1.2990   -3.7500    0.0000 C   0  0
    2.5981   -3.0000    0.0000 C   0  0  2  0  0  0
    2.5981   -1.5000    0.0000 C   0  0  2  0  0  0
    3.8971   -0.7500    0.0000 C   0  0  1  0  0  0
    3.8971    0.7500    0.0000 O   0  0
    5.1962   -1.5000    0.0000 C   0  0
    5.1962   -3.0000    0.0000 C   0  0  2  0  0  0
    6.5657   -2.3882    0.0000 C   0  0
    6.3051   -3.9936    0.0000 C   0  0  1  0  0  0
    7.7727   -3.6799    0.0000 C   0  0
    8.3390   -2.2963    0.0000 C   0  0
    9.8254   -2.0952    0.0000 C   0  0
   10.7428   -3.2819    0.0000 C   0  0
   12.2293   -3.0808    0.0000 O   0  0
   10.1738   -4.6698    0.0000 O   0  0
    8.6873   -4.8709    0.0000 C   0  0
    5.6950   -5.3640    0.0000 C   0  0
    4.2032   -5.2072    0.0000 C   0  0
    3.8971   -3.7500    0.0000 C   0  0  2  0  0  0
    2.6825   -4.6302    0.0000 O   0  0
  2  1  1  1
  2  3  1  0
  3  4  1  0
  4  5  1  0
  5  6  1  1
  5  7  1  0
  7  8  2  0
  8  2  1  0
  8  9  1  0
  9 10  1  0
 11 10  1  6
 12 11  1  1
 12  2  1  0
 12 13  1  0
 13 14  1  1
 13 15  1  0
 15 16  1  0
 16 17  1  1
 16 18  1  0
 18 19  1  1
 19 20  1  0
 20 21  2  0
 21 22  1  0
 22 23  2  0
 22 24  1  0
 24 25  1  0
 25 19  2  0
 18 26  1  0
 26 27  1  0
 27 28  1  0
 28 11  1  0
 28 16  1  0
 28 29  1  1
M  END
> <Smiles>
C[C@]12CC[C@H](O)C=C1CC[C@@H]1[C@@H]2[C@@H](O)C[C@]2(C)[C@@H](c3ccc(=O)oc3)CC[C@]12O

> <ID>
CHEMBL4855473

> <standard_value>
577

> <IC50_uM>
0.577

> <Activity>
Yes

> <pIC50>
6.238824187

> <BCI>
1

$$$$

  SciTegic03012415362D

 32 36  0  0  0  0            999 V2000
   12.2472    0.5037    0.0000 O   0  0
   11.6321    1.8718    0.0000 C   0  0
   10.1416    2.0240    0.0000 N   0  0
    9.1436    0.9042    0.0000 N   0  0
    7.7891    1.5184    0.0000 C   0  0
    6.4920    0.7636    0.0000 C   0  0
    6.4972   -0.7364    0.0000 C   0  0
    5.2007   -1.4909    0.0000 C   0  0
    3.8990   -0.7455    0.0000 C   0  0
    2.6003   -1.4977    0.0000 N   0  0
    1.2990   -0.7500    0.0000 C   0  0
    1.2990    0.7500    0.0000 C   0  0
    0.0000    1.5000    0.0000 C   0  0
   -1.2990    0.7500    0.0000 N   0  0
   -1.2990   -0.7500    0.0000 C   0  0
   -2.5981   -1.5000    0.0000 C   0  0
   -2.5981   -3.0000    0.0000 C   0  0
   -3.8971   -3.7500    0.0000 Cl  0  0
   -1.2990   -3.7500    0.0000 C   0  0
    0.0000   -3.0000    0.0000 C   0  0
    0.0000   -1.5000    0.0000 C   0  0
    3.8939    0.7546    0.0000 C   0  0
    5.1903    1.5091    0.0000 C   0  0
    7.9195    3.0000    0.0000 C   0  0
    9.3851    3.3193    0.0000 C   0  0  3  0  0  0
    9.9886    4.6933    0.0000 C   0  0
    9.1961    5.9611    0.0000 C   0  0
    9.9010    7.2852    0.0000 C   0  0
   11.4001    7.3368    0.0000 C   0  0
   12.1049    8.6609    0.0000 Cl  0  0
   12.1944    6.0644    0.0000 C   0  0
   11.4896    4.7403    0.0000 C   0  0
  1  2  2  0
  2  3  1  0
  3  4  1  0
  4  5  2  0
  5  6  1  0
  6  7  2  0
  7  8  1  0
  8  9  2  0
  9 10  1  0
 10 11  1  0
 11 12  2  0
 12 13  1  0
 13 14  2  0
 14 15  1  0
 15 16  2  0
 16 17  1  0
 17 18  1  0
 17 19  2  0
 19 20  1  0
 20 21  2  0
 21 11  1  0
 21 15  1  0
  9 22  1  0
 22 23  2  0
 23  6  1  0
  5 24  1  0
 24 25  1  0
 25  3  1  0
 25 26  1  4
 26 27  2  0
 27 28  1  0
 28 29  2  0
 29 30  1  0
 29 31  1  0
 31 32  2  0
 32 26  1  0
M  END
> <Smiles>
O=CN1N=C(c2ccc(Nc3ccnc4cc(Cl)ccc34)cc2)CC1c1ccc(Cl)cc1

> <ID>
CHEMBL2417849

> <standard_value>
580

> <IC50_uM>
0.58

> <Activity>
Yes

> <pIC50>
6.236572006

> <BCI>
1

$$$$

  SciTegic03012415362D

 26 27  0  0  1  0            999 V2000
    5.3192   -0.2597    0.0000 C   0  0
    4.1500    0.6800    0.0000 C   0  0  1  0  0  0
    2.5200    0.3600    0.0000 C   0  0
    2.3100   -1.1700    0.0000 C   0  0
    1.3300   -1.6300    0.0000 C   0  0
    0.1900   -1.1200    0.0000 C   0  0
    0.0000    0.3600    0.0000 C   0  0
   -1.5600    0.8100    0.0000 C   0  0  2  0  0  0
   -3.0100    0.3400    0.0000 C   0  0
   -3.9100    1.5700    0.0000 C   0  0  2  0  0  0
   -5.4100    1.5671    0.0000 O   0  0
   -3.0100    2.8100    0.0000 C   0  0
   -1.5600    2.3300    0.0000 C   0  0  1  0  0  0
    0.0000    2.8600    0.0000 C   0  0  2  0  0  0
    0.7452    2.1932    0.0000 O   0  0
    0.3300    4.3600    0.0000 C   0  0  2  0  0  0
   -0.6480    5.4889    0.0000 S   0  0  3  0  0  0
   -2.1204    5.2024    0.0000 O   0  0
   -0.1602    6.9083    0.0000 C   0  0
   -1.1447    8.0410    0.0000 C   0  0
   -0.6569    9.4604    0.0000 C   0  0
   -1.6409   10.5925    0.0000 O   0  0
    2.3100    4.3400    0.0000 C   0  0
    2.6000    2.8000    0.0000 C   0  0
    1.8719    2.1146    0.0000 O   0  0
    4.1100    2.4200    0.0000 O   0  0
  2  1  1  1
  2  3  1  0
  3  4  1  0
  4  5  1  0
  5  6  1  0
  6  7  2  0
  8  7  1  6
  8  9  1  0
  9 10  1  0
 10 11  1  6
 10 12  1  0
 13 12  1  1
 13  8  1  0
 13 14  1  0
 14 15  1  1
 14 16  1  0
 16 17  1  6
 17 18  2  0
 17 19  1  4
 19 20  1  0
 20 21  1  0
 21 22  1  0
 16 23  1  0
 23 24  1  0
 24 25  2  0
 24 26  1  0
 26  2  1  0
M  END
> <Smiles>
C[C@H]1CCC/C=C/[C@@H]2C[C@H](O)C[C@H]2[C@H](O)[C@H]([S+]([O-])CCCO)CC(=O)O1

> <ID>
CHEMBL128951

> <standard_value>
590

> <IC50_uM>
0.59

> <Activity>
Yes

> <pIC50>
6.229147988

> <BCI>
1

$$$$

  SciTegic03012415362D

 27 28  0  0  1  0            999 V2000
    5.3192   -0.2597    0.0000 C   0  0
    4.1500    0.6800    0.0000 C   0  0  1  0  0  0
    2.5200    0.3600    0.0000 C   0  0
    2.3100   -1.1700    0.0000 C   0  0
    1.3300   -1.6300    0.0000 C   0  0
    0.1900   -1.1200    0.0000 C   0  0
    0.0000    0.3600    0.0000 C   0  0
   -1.5600    0.8100    0.0000 C   0  0  2  0  0  0
   -3.0100    0.3400    0.0000 C   0  0
   -3.9100    1.5700    0.0000 C   0  0  2  0  0  0
   -5.4100    1.5671    0.0000 O   0  0
   -3.0100    2.8100    0.0000 C   0  0
   -1.5600    2.3300    0.0000 C   0  0  1  0  0  0
    0.0000    2.8600    0.0000 C   0  0  2  0  0  0
    0.7452    2.1932    0.0000 O   0  0
    0.3300    4.3600    0.0000 C   0  0  2  0  0  0
   -0.6480    5.4889    0.0000 S   0  0  3  0  0  0
   -2.1204    5.2024    0.0000 O   0  0
   -0.1602    6.9083    0.0000 C   0  0
   -1.1447    8.0410    0.0000 C   0  0
   -0.6569    9.4604    0.0000 C   0  0
   -1.6414   10.5931    0.0000 C   0  0
   -1.1539   12.0117    0.0000 O   0  0
    2.3100    4.3400    0.0000 C   0  0
    2.6000    2.8000    0.0000 C   0  0
    1.8719    2.1146    0.0000 O   0  0
    4.1100    2.4200    0.0000 O   0  0
  2  1  1  1
  2  3  1  0
  3  4  1  0
  4  5  1  0
  5  6  1  0
  6  7  2  0
  8  7  1  6
  8  9  1  0
  9 10  1  0
 10 11  1  6
 10 12  1  0
 13 12  1  1
 13  8  1  0
 13 14  1  0
 14 15  1  1
 14 16  1  0
 16 17  1  6
 17 18  2  0
 17 19  1  4
 19 20  1  0
 20 21  1  0
 21 22  1  0
 22 23  1  0
 16 24  1  0
 24 25  1  0
 25 26  2  0
 25 27  1  0
 27  2  1  0
M  END
> <Smiles>
C[C@H]1CCC/C=C/[C@@H]2C[C@H](O)C[C@H]2[C@H](O)[C@H]([S+]([O-])CCCCO)CC(=O)O1

> <ID>
CHEMBL129520

> <standard_value>
600

> <IC50_uM>
0.6

> <Activity>
Yes

> <pIC50>
6.22184875

> <BCI>
1

$$$$

  SciTegic03012415362D

 32 38  0  0  1  0            999 V2000
    2.5981   -1.5000    0.0000 O   0  0
    1.2990   -0.7500    0.0000 C   0  0
    1.2990    0.7500    0.0000 C   0  0
    2.5981    1.5000    0.0000 C   0  0
    2.5981    3.0000    0.0000 C   0  0
    1.2990    3.7500    0.0000 C   0  0
    0.0000    3.0000    0.0000 C   0  0
    0.0000    1.5000    0.0000 C   0  0
   -1.2990    0.7500    0.0000 C   0  0
   -1.2990   -0.7500    0.0000 C   0  0
    0.0000   -1.5000    0.0000 N   0  0
   -0.3114   -2.9665    0.0000 C   0  0
   -1.8032   -3.1233    0.0000 C   0  0
   -2.4133   -1.7530    0.0000 C   0  0
   -3.9040   -1.5957    0.0000 N   0  0
   -4.7856   -2.8092    0.0000 C   0  0
   -6.2774   -2.6524    0.0000 C   0  0
   -7.1591   -3.8659    0.0000 C   0  0
   -6.5490   -5.2363    0.0000 C   0  0
   -5.0572   -5.3930    0.0000 C   0  0
   -4.1755   -4.1795    0.0000 C   0  0
   -2.6837   -4.3363    0.0000 C   0  0
   -2.0699   -5.7059    0.0000 C   0  0
   -0.5770   -5.8600    0.0000 N   0  0
    0.1563   -7.1539    0.0000 C   0  0
    1.6223   -6.8363    0.0000 C   0  0
    1.7733   -5.3440    0.0000 C   0  0  2  0  0  0
    3.0694   -4.5889    0.0000 O   0  0
    0.4006   -4.7392    0.0000 C   0  0
   -7.6629   -6.2396    0.0000 O   0  0
   -8.9620   -5.4896    0.0000 C   0  0
   -8.6501   -4.0224    0.0000 O   0  0
  1  2  2  0
  2  3  1  0
  3  4  2  0
  4  5  1  0
  5  6  2  0
  6  7  1  0
  7  8  2  0
  8  3  1  0
  8  9  1  0
  9 10  2  0
 10 11  1  0
 11  2  1  0
 11 12  1  0
 12 13  1  0
 13 14  2  0
 14 10  1  0
 14 15  1  0
 15 16  2  0
 16 17  1  0
 17 18  2  0
 18 19  1  0
 19 20  2  0
 20 21  1  0
 21 16  1  0
 21 22  2  0
 22 13  1  0
 22 23  1  0
 23 24  1  0
 24 25  1  0
 25 26  1  0
 26 27  1  0
 27 28  1  1
 27 29  1  0
 29 24  1  0
 19 30  1  0
 30 31  1  0
 31 32  1  0
 32 18  1  0
M  END
> <Smiles>
O=c1c2ccccc2cc2n1Cc1c-2nc2cc3c(cc2c1CN1CC[C@H](O)C1)OCO3

> <ID>
CHEMBL1214165

> <standard_value>
600

> <IC50_uM>
0.6

> <Activity>
Yes

> <pIC50>
6.22184875

> <BCI>
1

$$$$

  SciTegic03012415362D

 19 20  0  0  0  0            999 V2000
    6.4897   -5.2632    0.0000 C   0  0
    5.1894   -6.0109    0.0000 N   0  0
    3.8912   -5.2578    0.0000 C   0  0
    3.8933   -3.7570    0.0000 C   0  0
    2.5951   -3.0039    0.0000 C   0  0
    2.5973   -1.5031    0.0000 O   0  0
    1.2990   -0.7500    0.0000 C   0  0
    1.2990    0.7500    0.0000 C   0  0
    0.0000    1.5000    0.0000 C   0  0
   -1.2990    0.7500    0.0000 C   0  0
   -2.5981    1.5000    0.0000 O   0  0
   -1.2990   -0.7500    0.0000 C   0  0
    0.0000   -1.5000    0.0000 C   0  0
    5.1873   -7.5117    0.0000 C   0  0
    6.4837   -8.2663    0.0000 C   0  0
    6.4785   -9.7663    0.0000 C   0  0
    5.1769  -10.5118    0.0000 C   0  0
    3.8804   -9.7573    0.0000 C   0  0
    3.8856   -8.2573    0.0000 C   0  0
  1  2  1  0
  2  3  1  0
  3  4  1  0
  4  5  1  0
  5  6  1  0
  6  7  1  0
  7  8  2  0
  8  9  1  0
  9 10  2  0
 10 11  1  0
 10 12  1  0
 12 13  2  0
 13  7  1  0
  2 14  1  0
 14 15  2  0
 15 16  1  0
 16 17  2  0
 17 18  1  0
 18 19  2  0
 19 14  1  0
M  END
> <Smiles>
CN(CCCOc1ccc(O)cc1)c1ccccc1

> <ID>
CHEMBL2380990

> <standard_value>
600

> <IC50_uM>
0.6

> <Activity>
Yes

> <pIC50>
6.22184875

> <BCI>
1

$$$$

  SciTegic03012415362D

 29 31  0  0  0  0            999 V2000
    9.0819   -9.7710    0.0000 O   0  0
    7.7815  -10.5187    0.0000 C   0  0
    6.4833   -9.7656    0.0000 C   0  0
    6.4855   -8.2648    0.0000 C   0  0
    5.1873   -7.5117    0.0000 C   0  0
    5.1894   -6.0109    0.0000 C   0  0
    3.8912   -5.2578    0.0000 C   0  0
    3.8933   -3.7570    0.0000 C   0  0
    2.5951   -3.0039    0.0000 C   0  0
    1.2948   -3.7516    0.0000 O   0  0
    2.5973   -1.5031    0.0000 N   0  0
    1.2990   -0.7500    0.0000 C   0  0
    1.2990    0.7500    0.0000 C   0  0
    0.0000    1.5000    0.0000 C   0  0
   -1.2990    0.7500    0.0000 C   0  0
   -1.2990   -0.7500    0.0000 C   0  0
    0.0000   -1.5000    0.0000 C   0  0
   -2.7248   -1.2135    0.0000 C   0  0
   -3.1904   -2.6376    0.0000 C   0  0
   -4.6588   -2.9478    0.0000 C   0  0
   -5.2521   -4.3116    0.0000 C   0  0
   -6.7433   -4.1499    0.0000 C   0  0
   -7.0504   -2.6817    0.0000 C   0  0
   -5.7489   -1.9360    0.0000 N   0  0
   -3.6065    0.0000    0.0000 C   0  0
   -5.1065    0.0000    0.0000 O   0  0
   -2.7248    1.2135    0.0000 N   0  0
    7.7794  -12.0195    0.0000 N   0  0
    9.0769  -12.7722    0.0000 O   0  0
  1  2  2  0
  2  3  1  0
  3  4  1  0
  4  5  1  0
  5  6  1  0
  6  7  1  0
  7  8  1  0
  8  9  1  0
  9 10  2  0
  9 11  1  0
 11 12  1  0
 12 13  2  0
 13 14  1  0
 14 15  2  0
 15 16  1  0
 16 17  2  0
 17 12  1  0
 16 18  1  0
 18 19  2  0
 19 20  1  0
 20 21  2  0
 21 22  1  0
 22 23  2  0
 23 24  1  0
 24 20  1  0
 18 25  1  0
 25 26  2  0
 25 27  1  0
 27 15  1  0
  2 28  1  0
 28 29  1  0
M  END
> <Smiles>
O=C(CCCCCCC(=O)Nc1ccc2c(c1)/C(=C/c1ccc[nH]1)C(=O)N2)NO

> <ID>
CHEMBL3621294

> <standard_value>
605

> <IC50_uM>
0.605

> <Activity>
Yes

> <pIC50>
6.218244625

> <BCI>
1

$$$$

  SciTegic03012415362D

 28 31  0  0  0  0            999 V2000
    2.5951   -3.0031    0.0000 C   0  0
    2.5973   -1.5031    0.0000 O   0  0
    1.2990   -0.7500    0.0000 C   0  0
    1.2990    0.7500    0.0000 C   0  0
    0.0000    1.5000    0.0000 C   0  0
   -1.2990    0.7500    0.0000 C   0  0
   -1.2990   -0.7500    0.0000 C   0  0
    0.0000   -1.5000    0.0000 C   0  0
   -2.7248   -1.2135    0.0000 C   0  0
   -3.6065    0.0000    0.0000 C   0  0
   -5.0972   -0.1561    0.0000 C   0  0
   -5.9789    1.0575    0.0000 C   0  0
   -7.4707    0.9006    0.0000 C   0  0
   -8.0808   -0.4697    0.0000 C   0  0
   -9.5731   -0.6296    0.0000 N   0  3
  -10.1812   -2.0008    0.0000 O   0  0
  -10.4569    0.5823    0.0000 O   0  5
   -7.1991   -1.6832    0.0000 C   0  0
   -5.7073   -1.5264    0.0000 C   0  0
   -4.8256   -2.7399    0.0000 C   0  0
   -5.4357   -4.1102    0.0000 O   0  0
   -3.3339   -2.5831    0.0000 N   0  0
   -2.4537   -3.7988    0.0000 C   0  0
   -3.0655   -5.1692    0.0000 C   0  0
   -2.1854   -6.3849    0.0000 C   0  0
   -2.7968   -7.7546    0.0000 N   0  0
   -2.7248    1.2135    0.0000 C   0  0
   -3.1882    2.6401    0.0000 O   0  0
  1  2  1  0
  2  3  1  0
  3  4  2  0
  4  5  1  0
  5  6  2  0
  6  7  1  0
  7  8  2  0
  8  3  1  0
  7  9  1  0
  9 10  2  0
 10 11  1  0
 11 12  2  0
 12 13  1  0
 13 14  2  0
 14 15  1  0
 15 16  2  0
 15 17  1  0
 14 18  1  0
 18 19  2  0
 19 11  1  0
 19 20  1  0
 20 21  2  0
 20 22  1  0
 22  9  1  0
 22 23  1  0
 23 24  1  0
 24 25  1  0
 25 26  1  0
 10 27  1  0
 27  6  1  0
 27 28  2  0
M  CHG  2  15   1  17  -1
M  END
> <Smiles>
COc1ccc2c(c1)-c1c(c3ccc([N+](=O)[O-])cc3c(=O)n1CCCN)C2=O.Cl

> <ID>
CHEMBL2312899

> <standard_value>
610

> <IC50_uM>
0.61

> <Activity>
Yes

> <pIC50>
6.214670165

> <BCI>
1

> <RemovedSalts>
HCl

$$$$

  SciTegic03012415362D

 33 37  0  0  0  0            999 V2000
    8.4166   11.6772    0.0000 C   0  0
    9.1366   10.3613    0.0000 O   0  0
    8.3574    9.0786    0.0000 C   0  0
    9.0756    7.7617    0.0000 C   0  0
    8.2942    6.4813    0.0000 C   0  0
    6.7996    6.5186    0.0000 C   0  0
    5.9236    5.3000    0.0000 C   0  0  3  0  0  0
    6.3943    3.8758    0.0000 C   0  0
    5.1852    3.0098    0.0000 C   0  0
    5.1903    1.5091    0.0000 C   0  0
    6.4920    0.7636    0.0000 C   0  0
    6.4972   -0.7364    0.0000 C   0  0
    5.2007   -1.4909    0.0000 C   0  0
    3.8990   -0.7455    0.0000 C   0  0
    2.6003   -1.4977    0.0000 N   0  0
    1.2990   -0.7500    0.0000 C   0  0
    1.2990    0.7500    0.0000 C   0  0
    0.0000    1.5000    0.0000 C   0  0
   -1.2990    0.7500    0.0000 N   0  0
   -1.2990   -0.7500    0.0000 C   0  0
   -2.5981   -1.5000    0.0000 C   0  0
   -2.5981   -3.0000    0.0000 C   0  0
   -3.8971   -3.7500    0.0000 Cl  0  0
   -1.2990   -3.7500    0.0000 C   0  0
    0.0000   -3.0000    0.0000 C   0  0
    0.0000   -1.5000    0.0000 C   0  0
    3.8939    0.7546    0.0000 C   0  0
    3.9673    3.8635    0.0000 N   0  0
    4.4236    5.2924    0.0000 N   0  0
    3.5344    6.4982    0.0000 C   0  0
    2.0436    6.3318    0.0000 O   0  0
    6.0765    7.8347    0.0000 C   0  0
    6.8579    9.1151    0.0000 C   0  0
  1  2  1  0
  2  3  1  0
  3  4  2  0
  4  5  1  0
  5  6  2  0
  7  6  1  4
  7  8  1  0
  8  9  1  0
  9 10  1  0
 10 11  2  0
 11 12  1  0
 12 13  2  0
 13 14  1  0
 14 15  1  0
 15 16  1  0
 16 17  2  0
 17 18  1  0
 18 19  2  0
 19 20  1  0
 20 21  2  0
 21 22  1  0
 22 23  1  0
 22 24  2  0
 24 25  1  0
 25 26  2  0
 26 16  1  0
 26 20  1  0
 14 27  2  0
 27 10  1  0
  9 28  2  0
 28 29  1  0
 29  7  1  0
 29 30  1  0
 30 31  2  0
  6 32  1  0
 32 33  2  0
 33  3  1  0
M  END
> <Smiles>
COc1ccc(C2CC(c3cccc(Nc4ccnc5cc(Cl)ccc45)c3)=NN2C=O)cc1

> <ID>
CHEMBL2417840

> <standard_value>
610

> <IC50_uM>
0.61

> <Activity>
Yes

> <pIC50>
6.214670165

> <BCI>
1

$$$$

  SciTegic03012415362D

 24 25  0  0  0  0            999 V2000
    3.8983   -0.7459    0.0000 C   0  0
    2.6003   -1.4977    0.0000 O   0  0
    1.2990   -0.7500    0.0000 C   0  0
    1.2990    0.7500    0.0000 C   0  0
    0.0000    1.5000    0.0000 C   0  0
   -0.0031    3.0008    0.0000 C   0  0
    1.2946    3.7531    0.0000 O   0  0
   -1.3039    3.7494    0.0000 C   0  0
   -2.6005    2.9949    0.0000 C   0  0
   -3.9021    3.7404    0.0000 C   0  0
   -3.9073    5.2404    0.0000 C   0  0
   -5.2112    5.9837    0.0000 O   0  0
   -6.5065    5.2273    0.0000 C   0  0
   -2.6108    5.9949    0.0000 C   0  0
   -2.6160    7.4949    0.0000 O   0  0
   -1.3092    5.2494    0.0000 C   0  0
   -0.0105    6.0017    0.0000 O   0  0
    1.2901    5.2544    0.0000 C   0  0
   -1.2990    0.7500    0.0000 C   0  0
   -1.2990   -0.7500    0.0000 C   0  0
   -2.6003   -1.4978    0.0000 O   0  0
   -3.8983   -0.7459    0.0000 C   0  0
    0.0000   -1.5000    0.0000 C   0  0
    0.0000   -3.0000    0.0000 O   0  0
  1  2  1  0
  2  3  1  0
  3  4  2  0
  4  5  1  0
  5  6  1  0
  6  7  2  0
  6  8  1  0
  8  9  2  0
  9 10  1  0
 10 11  2  0
 11 12  1  0
 12 13  1  0
 11 14  1  0
 14 15  1  0
 14 16  2  0
 16  8  1  0
 16 17  1  0
 17 18  1  0
  5 19  2  0
 19 20  1  0
 20 21  1  0
 21 22  1  0
 20 23  2  0
 23  3  1  0
 23 24  1  0
M  END
> <Smiles>
COc1cc(C(=O)c2ccc(OC)c(O)c2OC)cc(OC)c1O

> <ID>
CHEMBL1835001

> <standard_value>
611

> <IC50_uM>
0.611

> <Activity>
Yes

> <pIC50>
6.21395879

> <BCI>
1

$$$$

  SciTegic03012415362D

 51 58  0  0  1  0            999 V2000
    4.1900   -1.3600    0.0000 C   0  0
    2.6900   -1.3600    0.0000 C   0  0  1  0  0  0
    1.8400   -2.8200    0.0000 C   0  0  1  0  0  0
    2.5900   -4.1179    0.0000 O   0  0
    4.0908   -4.1184    0.0000 C   0  0
    4.8416   -5.4179    0.0000 C   0  0
    6.3425   -5.4183    0.0000 C   0  0
    7.0933   -6.7178    0.0000 O   0  0
    8.5941   -6.7182    0.0000 C   0  0  1  0  0  0
    9.4188   -5.2518    0.0000 O   0  0
   11.1032   -5.2484    0.0000 C   0  0  2  0  0  0
   11.7095   -4.1897    0.0000 O   0  0
   12.8782   -3.8795    0.0000 C   0  0  1  0  0  0
   12.6832   -5.3668    0.0000 C   0  0
   13.9282   -4.4809    0.0000 C   0  0
   14.2520   -5.6459    0.0000 C   0  0
   13.6457   -6.7046    0.0000 C   0  0  1  0  0  0
   14.4952   -8.1591    0.0000 C   0  0  2  0  0  0
   15.9952   -8.1527    0.0000 C   0  0
   13.6553   -9.6256    0.0000 C   0  0
   11.9659   -9.6376    0.0000 C   0  0
   11.1127   -8.1694    0.0000 C   0  0  1  0  0  0
    9.4234   -8.1815    0.0000 C   0  0  1  0  0  0
    8.6728   -9.4802    0.0000 C   0  0
   11.9526   -6.7029    0.0000 C   0  0  1  0  0  0
   13.1206   -5.8507    0.0000 O   0  0
   13.1142   -4.7753    0.0000 O   0  0
    4.0939   -6.7192    0.0000 O   0  0
    4.8462   -8.0179    0.0000 C   0  0
    6.3462   -8.0152    0.0000 O   0  0
    4.0985   -9.3192    0.0000 C   0  0
    4.8508  -10.6178    0.0000 C   0  0
    4.1031  -11.9191    0.0000 C   0  0
    4.8550  -13.2171    0.0000 O   0  0
    2.6031  -11.9218    0.0000 O   0  0
    0.1500   -2.8200    0.0000 O   0  0
   -0.6900   -1.3600    0.0000 C   0  0  2  0  0  0
   -1.9100   -1.3600    0.0000 O   0  0
   -2.7600   -0.5000    0.0000 C   0  0  1  0  0  0
   -1.3725    0.0700    0.0000 C   0  0
   -2.7600    0.7100    0.0000 C   0  0
   -1.9100    1.5700    0.0000 C   0  0
   -0.6900    1.5700    0.0000 C   0  0  1  0  0  0
    0.1500    3.0300    0.0000 C   0  0  2  0  0  0
   -0.6010    4.3285    0.0000 C   0  0
    1.8400    3.0300    0.0000 C   0  0
    2.6900    1.5700    0.0000 C   0  0
    1.8400    0.1000    0.0000 C   0  0  2  0  0  0
    0.1500    0.1000    0.0000 C   0  0  1  0  0  0
   -1.1700    0.6900    0.0000 O   0  0
   -2.1000    0.1500    0.0000 O   0  0
  2  1  1  1
  2  3  1  0
  3  4  1  1
  4  5  1  0
  5  6  1  0
  6  7  1  0
  7  8  1  0
  9  8  1  1
  9 10  1  0
 11 10  1  6
 11 12  1  0
 12 13  1  0
 13 14  1  6
 13 15  1  0
 15 16  1  0
 17 16  1  1
 17 18  1  0
 18 19  1  6
 18 20  1  0
 20 21  1  0
 22 21  1  1
 22 23  1  0
 23  9  1  0
 23 24  1  1
 22 25  1  0
 25 11  1  0
 25 17  1  0
 25 26  1  6
 26 27  1  0
 27 13  1  0
  6 28  1  0
 28 29  1  0
 29 30  2  0
 29 31  1  0
 31 32  1  0
 32 33  1  0
 33 34  2  0
 33 35  1  0
  3 36  1  0
 37 36  1  6
 37 38  1  0
 38 39  1  0
 39 40  1  6
 39 41  1  0
 41 42  1  0
 43 42  1  1
 43 44  1  0
 44 45  1  6
 44 46  1  0
 46 47  1  0
 48 47  1  1
 48  2  1  0
 48 49  1  0
 49 37  1  0
 49 43  1  0
 49 50  1  6
 50 51  1  0
 51 39  1  0
M  END
> <Smiles>
C[C@H]1[C@@H](OCC(CO[C@H]2O[C@@H]3O[C@@]4(C)CC[C@H]5[C@H](C)CC[C@@H]([C@H]2C)[C@@]35OO4)OC(=O)CCC(=O)O)O[C@@H]2O[C@@]3(C)CC[C@H]4[C@H](C)CC[C@@H]1[C@@]24OO3

> <ID>
CHEMBL443598

> <standard_value>
616

> <IC50_uM>
0.616

> <Activity>
Yes

> <pIC50>
6.210419288

> <BCI>
1

$$$$

  SciTegic03012415362D

 19 22  0  0  1  0            999 V2000
    2.5175   -4.4368    0.0000 O   0  0
    1.7758   -3.1329    0.0000 C   0  0
    2.3947   -1.7666    0.0000 N   0  0
    1.2990   -0.7500    0.0000 C   0  0  1  0  0  0
    1.2990    0.7500    0.0000 N   0  0
    0.0000    1.5000    0.0000 C   0  0
    0.3114    2.9665    0.0000 C   0  0
    1.8032    3.1233    0.0000 C   0  0
    2.5532    4.4223    0.0000 Br  0  0
    2.4133    1.7530    0.0000 C   0  0
    3.8805    1.4410    0.0000 Br  0  0
   -1.2990    0.7500    0.0000 C   0  0
   -2.5981    1.5000    0.0000 O   0  0
   -1.2990   -0.7500    0.0000 N   0  0
   -2.4178   -1.7552    0.0000 C   0  0
   -1.8080   -3.1256    0.0000 C   0  0
   -0.3162   -2.9691    0.0000 C   0  0
    0.0000   -1.5000    0.0000 C   0  0  2  0  0  0
    0.2851   -2.9666    0.0000 N   0  0
  1  2  2  0
  2  3  1  0
  4  3  1  6
  4  5  1  0
  5  6  1  0
  6  7  2  0
  7  8  1  0
  8  9  1  0
  8 10  2  0
 10  5  1  0
 10 11  1  0
  6 12  1  0
 12 13  2  0
 12 14  1  0
 14 15  1  0
 15 16  1  0
 16 17  1  0
 18 17  1  1
 18  4  1  0
 18 14  1  0
 18 19  1  0
 19  2  1  0
M  END
> <Smiles>
O=C1N[C@H]2n3c(cc(Br)c3Br)C(=O)N3CCC[C@]23N1

> <ID>
CHEMBL390234

> <standard_value>
616.6

> <IC50_uM>
0.6166

> <Activity>
Yes

> <pIC50>
6.20999648

> <BCI>
1

$$$$

  SciTegic03012415362D

 24 27  0  0  1  0            999 V2000
    6.4983   -0.7414    0.0000 C   0  0
    5.2003   -1.4932    0.0000 C   0  0
    3.8990   -0.7455    0.0000 C   0  0
    2.6003   -1.4977    0.0000 C   0  0
    1.2990   -0.7500    0.0000 C   0  0
    1.2990    0.7500    0.0000 C   0  0
    0.0000    1.5000    0.0000 C   0  0
   -1.2990    0.7500    0.0000 C   0  0
   -1.2990   -0.7500    0.0000 C   0  0
    0.0000   -1.5000    0.0000 C   0  0
    0.0000   -3.0000    0.0000 O   0  0
   -2.5981    1.5000    0.0000 C   0  0
   -2.5981    3.0000    0.0000 C   0  0
   -1.2991    3.7500    0.0000 C   0  0  2  0  0  0
    0.0000    3.0000    0.0000 C   0  0  2  0  0  0
    1.2990    3.7500    0.0000 C   0  0
    1.2990    5.2500    0.0000 C   0  0
    0.0000    6.0000    0.0000 C   0  0  2  0  0  0
    1.2211    6.8711    0.0000 C   0  0
   -0.2851    7.4666    0.0000 C   0  0  1  0  0  0
    0.7318    8.5693    0.0000 O   0  0
   -1.7759    7.6329    0.0000 C   0  0
   -2.3947    6.2665    0.0000 C   0  0
   -1.2991    5.2500    0.0000 C   0  0  1  0  0  0
  1  2  1  0
  2  3  1  0
  3  4  2  0
  4  5  1  0
  5  6  2  0
  6  7  1  0
  7  8  2  0
  8  9  1  0
  9 10  2  0
 10  5  1  0
 10 11  1  0
  8 12  1  0
 12 13  1  0
 14 13  1  1
 14 15  1  0
 15  7  1  0
 15 16  1  6
 16 17  1  0
 17 18  1  0
 18 19  1  6
 18 20  1  0
 20 21  1  6
 20 22  1  0
 22 23  1  0
 24 23  1  6
 24 14  1  0
 24 18  1  0
M  END
> <Smiles>
CC/C=C/c1cc2c(cc1O)CC[C@@H]1[C@@H]2CC[C@]2(C)[C@@H](O)CC[C@@H]12

> <ID>
CHEMBL1627838

> <standard_value>
640

> <IC50_uM>
0.64

> <Activity>
Yes

> <pIC50>
6.193820026

> <BCI>
1

$$$$

  SciTegic03012415362D

 31 36  0  0  0  0            999 V2000
    2.5981   -1.5000    0.0000 C   0  0
    1.2990   -0.7500    0.0000 N   0  3
    1.2990    0.7500    0.0000 C   0  0
    2.5981    1.5000    0.0000 C   0  0
    2.5981    3.0000    0.0000 C   0  0
    1.2990    3.7500    0.0000 C   0  0
    0.0000    3.0000    0.0000 C   0  0
    0.0000    1.5000    0.0000 C   0  0
   -1.2990    0.7500    0.0000 C   0  0
   -2.6003    1.4977    0.0000 N   0  0
   -3.8990    0.7455    0.0000 C   0  0
   -5.2007    1.4909    0.0000 C   0  0
   -6.4972    0.7364    0.0000 C   0  0
   -6.4920   -0.7636    0.0000 C   0  0
   -7.7890   -1.5185    0.0000 N   0  0
   -9.0920   -0.7751    0.0000 C   0  0
  -10.3872   -1.5316    0.0000 C   0  0
  -10.3796   -3.0316    0.0000 C   0  0
   -9.0768   -3.7750    0.0000 C   0  0
   -7.7816   -3.0185    0.0000 C   0  0
   -5.1903   -1.5091    0.0000 C   0  0
   -3.8939   -0.7546    0.0000 C   0  0
   -1.2990   -0.7500    0.0000 C   0  0
   -2.4133   -1.7530    0.0000 N   0  0
   -1.8032   -3.1233    0.0000 C   0  0
   -2.4134   -4.4924    0.0000 C   0  0
   -1.5318   -5.7059    0.0000 C   0  0
   -0.0400   -5.5491    0.0000 C   0  0
    0.5701   -4.1788    0.0000 C   0  0
   -0.3114   -2.9665    0.0000 C   0  0
    0.0000   -1.5000    0.0000 C   0  0
  1  2  1  0
  2  3  2  0
  3  4  1  0
  4  5  2  0
  5  6  1  0
  6  7  2  0
  7  8  1  0
  8  3  1  0
  8  9  2  0
  9 10  1  0
 10 11  1  0
 11 12  2  0
 12 13  1  0
 13 14  2  0
 14 15  1  0
 15 16  1  0
 16 17  1  0
 17 18  1  0
 18 19  1  0
 19 20  1  0
 20 15  1  0
 14 21  1  0
 21 22  2  0
 22 11  1  0
  9 23  1  0
 23 24  1  0
 24 25  1  0
 25 26  2  0
 26 27  1  0
 27 28  2  0
 28 29  1  0
 29 30  2  0
 30 25  1  0
 30 31  1  0
 31 23  2  0
 31  2  1  0
M  CHG  1   2   1
M  END
> <Smiles>
C[n+]1c2ccccc2c(Nc2ccc(N3CCCCC3)cc2)c2[nH]c3ccccc3c21.[Cl-]

> <ID>
CHEMBL1289828

> <standard_value>
645.65

> <IC50_uM>
0.64565

> <Activity>
Yes

> <pIC50>
6.190002845

> <BCI>
1

> <RemovedSalts>
Cl-

$$$$

  SciTegic03012415362D

 26 29  0  0  1  0            999 V2000
    3.8983   -0.7459    0.0000 C   0  0
    2.6003   -1.4977    0.0000 O   0  0
    1.2990   -0.7500    0.0000 C   0  0
    1.2990    0.7500    0.0000 C   0  0
    0.0000    1.5000    0.0000 C   0  0
   -1.2990    0.7500    0.0000 C   0  0
   -1.2990   -0.7500    0.0000 C   0  0
    0.0000   -1.5000    0.0000 C   0  0
   -0.0031   -3.0008    0.0000 O   0  0
   -1.3039   -3.7494    0.0000 P   0  0
   -1.3070   -5.2494    0.0000 O   0  0
   -2.6016   -2.9971    0.0000 O   0  5
   -2.6044   -4.4969    0.0000 O   0  0
   -2.5981    1.5000    0.0000 C   0  0
   -2.5981    3.0000    0.0000 C   0  0
   -1.2991    3.7500    0.0000 C   0  0  2  0  0  0
    0.0000    3.0000    0.0000 C   0  0  2  0  0  0
    1.2990    3.7500    0.0000 C   0  0
    1.2990    5.2500    0.0000 C   0  0
    0.0000    6.0000    0.0000 C   0  0  2  0  0  0
    1.2211    6.8711    0.0000 C   0  0
   -0.2851    7.4666    0.0000 C   0  0  1  0  0  0
    0.7318    8.5693    0.0000 O   0  0
   -1.7759    7.6329    0.0000 C   0  0
   -2.3947    6.2665    0.0000 C   0  0
   -1.2991    5.2500    0.0000 C   0  0  1  0  0  0
  1  2  1  0
  2  3  1  0
  3  4  2  0
  4  5  1  0
  5  6  2  0
  6  7  1  0
  7  8  2  0
  8  3  1  0
  8  9  1  0
  9 10  1  0
 10 11  2  0
 10 12  1  0
 10 13  1  0
  6 14  1  0
 14 15  1  0
 16 15  1  1
 16 17  1  0
 17  5  1  0
 17 18  1  6
 18 19  1  0
 19 20  1  0
 20 21  1  6
 20 22  1  0
 22 23  1  6
 22 24  1  0
 24 25  1  0
 26 25  1  6
 26 16  1  0
 26 20  1  0
M  CHG  1  12  -1
M  END
> <Smiles>
COc1cc2c(cc1OP(=O)([O-])O)CC[C@@H]1[C@@H]2CC[C@]2(C)[C@@H](O)CC[C@@H]12.[Na+]

> <ID>
CHEMBL394145

> <standard_value>
660

> <IC50_uM>
0.66

> <Activity>
Yes

> <pIC50>
6.180456064

> <BCI>
1

> <RemovedSalts>
Na+

$$$$

  SciTegic03012415362D

 29 32  0  0  0  0            999 V2000
    3.8983   -0.7459    0.0000 C   0  0
    2.6003   -1.4977    0.0000 O   0  0
    1.2990   -0.7500    0.0000 C   0  0
    1.2990    0.7500    0.0000 C   0  0
    0.0000    1.5000    0.0000 C   0  0
   -1.2990    0.7500    0.0000 C   0  0
   -1.2990   -0.7500    0.0000 C   0  0
    0.0000   -1.5000    0.0000 C   0  0
    0.0000   -3.0000    0.0000 O   0  0
   -2.4133    1.7530    0.0000 C   0  0
   -1.8032    3.1233    0.0000 C   0  0
   -2.6838    4.3363    0.0000 C   0  0
   -2.0737    5.7066    0.0000 C   0  0
   -2.9554    6.9201    0.0000 C   0  0
   -4.4472    6.7633    0.0000 C   0  0
   -5.3318    7.9757    0.0000 N   0  3
   -6.8234    7.8168    0.0000 O   0  0
   -4.7241    9.3471    0.0000 O   0  5
   -5.0572    5.3930    0.0000 C   0  0
   -4.1756    4.1795    0.0000 C   0  0
   -4.7857    2.8092    0.0000 C   0  0
   -6.2774    2.6524    0.0000 O   0  0
   -3.9040    1.5956    0.0000 N   0  0
   -4.5167    0.2256    0.0000 C   0  0
   -6.0094    0.0702    0.0000 C   0  0
   -6.6221   -1.2999    0.0000 C   0  0
   -8.1141   -1.4552    0.0000 N   0  0
   -0.3115    2.9665    0.0000 C   0  0
    0.6923    4.0811    0.0000 O   0  0
  1  2  1  0
  2  3  1  0
  3  4  2  0
  4  5  1  0
  5  6  2  0
  6  7  1  0
  7  8  2  0
  8  3  1  0
  8  9  1  0
  6 10  1  0
 10 11  2  0
 11 12  1  0
 12 13  2  0
 13 14  1  0
 14 15  2  0
 15 16  1  0
 16 17  2  0
 16 18  1  0
 15 19  1  0
 19 20  2  0
 20 12  1  0
 20 21  1  0
 21 22  2  0
 21 23  1  0
 23 10  1  0
 23 24  1  0
 24 25  1  0
 25 26  1  0
 26 27  1  0
 11 28  1  0
 28  5  1  0
 28 29  2  0
M  CHG  2  16   1  18  -1
M  END
> <Smiles>
Br.COc1cc2c(cc1O)-c1c(c3ccc([N+](=O)[O-])cc3c(=O)n1CCCN)C2=O

> <ID>
CHEMBL3422392

> <standard_value>
660

> <IC50_uM>
0.66

> <Activity>
Yes

> <pIC50>
6.180456064

> <BCI>
1

> <RemovedSalts>
HBr

$$$$

  SciTegic03012415362D

 22 23  0  0  1  0            999 V2000
    5.3192   -0.2597    0.0000 C   0  0
    4.1500    0.6800    0.0000 C   0  0  1  0  0  0
    2.5200    0.3600    0.0000 C   0  0
    2.3100   -1.1700    0.0000 C   0  0
    1.3300   -1.6300    0.0000 C   0  0
    0.1900   -1.1200    0.0000 C   0  0
    0.0000    0.3600    0.0000 C   0  0
   -1.5600    0.8100    0.0000 C   0  0  2  0  0  0
   -3.0100    0.3400    0.0000 C   0  0
   -3.9100    1.5700    0.0000 C   0  0  2  0  0  0
   -5.4100    1.5671    0.0000 O   0  0
   -3.0100    2.8100    0.0000 C   0  0
   -1.5600    2.3300    0.0000 C   0  0  1  0  0  0
    0.0000    2.8600    0.0000 C   0  0  2  0  0  0
    0.7452    2.1932    0.0000 O   0  0
    0.3300    4.3600    0.0000 C   0  0  3  0  0  0
   -0.6039    5.5338    0.0000 O   0  0
    2.3100    4.3400    0.0000 C   0  0  3  0  0  0
    3.2733    5.4898    0.0000 O   0  0
    2.6000    2.8000    0.0000 C   0  0
    1.8719    2.1146    0.0000 O   0  0
    4.1100    2.4200    0.0000 O   0  0
  2  1  1  1
  2  3  1  0
  3  4  1  0
  4  5  1  0
  5  6  1  0
  6  7  2  0
  8  7  1  6
  8  9  1  0
  9 10  1  0
 10 11  1  6
 10 12  1  0
 13 12  1  1
 13  8  1  0
 13 14  1  0
 14 15  1  1
 14 16  1  0
 16 17  1  4
 16 18  1  0
 18 19  1  4
 18 20  1  0
 20 21  2  0
 20 22  1  0
 22  2  1  0
M  END
> <Smiles>
C[C@H]1CCC/C=C/[C@@H]2C[C@H](O)C[C@H]2[C@H](O)C(O)C(O)C(=O)O1

> <ID>
CHEMBL115219

> <standard_value>
680

> <IC50_uM>
0.68

> <Activity>
Yes

> <pIC50>
6.167491087

> <BCI>
1

$$$$

  SciTegic03012415362D

 26 27  0  0  1  0            999 V2000
   -3.2806   -3.9906    0.0000 C   0  0
   -1.8747   -4.5136    0.0000 C   0  0  1  0  0  0
   -1.6252   -5.9927    0.0000 O   0  0
   -0.7185   -3.5567    0.0000 C   0  0
   -0.9682   -2.0768    0.0000 S   0  0  3  0  0  0
   -2.3741   -1.5538    0.0000 O   0  0
    0.1900   -1.1200    0.0000 C   0  0  2  0  0  0
    1.3300   -1.6300    0.0000 C   0  0
    2.3100   -1.1700    0.0000 C   0  0
    3.5183   -2.0588    0.0000 O   0  0
    2.5200    0.3600    0.0000 O   0  0
    4.1500    0.6800    0.0000 C   0  0  1  0  0  0
    5.3192   -0.2597    0.0000 C   0  0
    4.1100    2.4200    0.0000 C   0  0
    2.6000    2.8000    0.0000 C   0  0
    2.3100    4.3400    0.0000 C   0  0
    0.3300    4.3600    0.0000 C   0  0
    0.0000    2.8600    0.0000 C   0  0
   -1.5600    2.3300    0.0000 C   0  0  2  0  0  0
   -3.0100    2.8100    0.0000 C   0  0
   -3.9100    1.5700    0.0000 C   0  0  2  0  0  0
   -5.4100    1.5671    0.0000 O   0  0
   -3.0100    0.3400    0.0000 C   0  0
   -1.5600    0.8100    0.0000 C   0  0  1  0  0  0
    0.0000    0.3600    0.0000 C   0  0  2  0  0  0
    1.1387    1.3364    0.0000 O   0  0
  2  1  1  6
  2  3  1  0
  2  4  1  0
  5  4  1  4
  5  6  2  0
  7  5  1  1
  7  8  1  0
  8  9  1  0
  9 10  2  0
  9 11  1  0
 11 12  1  0
 12 13  1  6
 12 14  1  0
 14 15  1  0
 15 16  1  0
 16 17  1  0
 17 18  2  0
 19 18  1  1
 19 20  1  0
 20 21  1  0
 21 22  1  1
 21 23  1  0
 24 23  1  6
 24 19  1  0
 24 25  1  0
 25  7  1  0
 25 26  1  6
M  END
> <Smiles>
C[C@@H](O)C[S+]([O-])[C@@H]1CC(=O)O[C@@H](C)CCC/C=C/[C@@H]2C[C@H](O)C[C@H]2[C@@H]1O

> <ID>
CHEMBL129526

> <standard_value>
710

> <IC50_uM>
0.71

> <Activity>
Yes

> <pIC50>
6.148741651

> <BCI>
1

$$$$

  SciTegic03012415362D

 24 25  0  0  1  0            999 V2000
    2.9336    3.6887    0.0000 C   0  0
    4.0501    2.6868    0.0000 C   0  0
    5.4757    3.1532    0.0000 O   0  0
    3.7400    1.2184    0.0000 O   0  0
    2.3083    0.7500    0.0000 C   0  0  2  0  0  0
    1.4266    1.9635    0.0000 C   0  0
    0.0000    2.4271    0.0000 C   0  0
   -1.4266    1.9635    0.0000 C   0  0
   -2.3083    0.7500    0.0000 C   0  0
   -2.3083   -0.7500    0.0000 C   0  0
   -1.4266   -1.9635    0.0000 C   0  0
    0.0000   -2.4271    0.0000 C   0  0
    1.4266   -1.9635    0.0000 C   0  0  1  0  0  0
    2.6416   -2.8462    0.0000 C   0  0
    2.8762   -4.3278    0.0000 O   0  0
    3.5232   -1.6327    0.0000 N   0  0
    5.0001   -1.4022    0.0000 C   0  0
    5.5403   -0.0029    0.0000 O   0  0
    5.9427   -2.5701    0.0000 O   0  0
    7.4256   -2.3386    0.0000 C   0  0
    8.3677   -3.5059    0.0000 C   0  0
    8.9075   -2.1066    0.0000 C   0  0
    7.9658   -0.9393    0.0000 C   0  0
    2.3083   -0.7500    0.0000 C   0  0  2  0  0  0
  1  2  1  0
  2  3  2  0
  2  4  1  0
  5  4  1  1
  5  6  1  0
  6  7  3  0
  7  8  1  0
  8  9  2  0
  9 10  1  0
 10 11  3  0
 11 12  1  0
 13 12  1  6
 13 14  1  0
 14 15  2  0
 14 16  1  0
 16 17  1  0
 17 18  2  0
 17 19  1  0
 19 20  1  0
 20 21  1  0
 20 22  1  0
 20 23  1  0
 24 16  1  1
 24  5  1  0
 24 13  1  0
M  END
> <Smiles>
CC(=O)O[C@@H]1C#C/C=C\C#CC[C@H]2C(=O)N(C(=O)OC(C)(C)C)[C@H]12

> <ID>
CHEMBL259332

> <standard_value>
724.44

> <IC50_uM>
0.72444

> <Activity>
Yes

> <pIC50>
6.139997578

> <BCI>
1

$$$$

  SciTegic03012415362D

 27 30  0  0  0  0            999 V2000
    5.1887   -6.0105    0.0000 C   0  0
    3.8912   -5.2578    0.0000 N   0  0
    3.8933   -3.7570    0.0000 C   0  0
    2.5951   -3.0039    0.0000 C   0  0
    2.5973   -1.5031    0.0000 C   0  0
    1.2990   -0.7500    0.0000 N   0  0
    1.2990    0.7500    0.0000 C   0  0
    0.0000    1.5000    0.0000 C   0  0
   -1.2990    0.7500    0.0000 C   0  0
   -2.5981    1.5000    0.0000 C   0  0
   -3.8971    0.7500    0.0000 C   0  0
   -3.8971   -0.7500    0.0000 C   0  0
   -5.1961   -1.5000    0.0000 Cl  0  0
   -2.5981   -1.5000    0.0000 C   0  0
   -1.2990   -0.7500    0.0000 C   0  0
    0.0000   -1.5000    0.0000 C   0  0
    0.0000   -3.0000    0.0000 O   0  0
    0.3114    2.9665    0.0000 C   0  0
   -0.6924    4.0811    0.0000 O   0  0
    1.8032    3.1233    0.0000 C   0  0
    2.6837    4.3363    0.0000 C   0  0
    4.1755    4.1795    0.0000 C   0  0
    5.0602    5.3919    0.0000 O   0  0
    6.5517    5.2330    0.0000 C   0  0
    4.7856    2.8092    0.0000 C   0  0
    3.9040    1.5957    0.0000 N   0  0
    2.4133    1.7530    0.0000 C   0  0
  1  2  1  0
  2  3  1  0
  3  4  1  0
  4  5  1  0
  5  6  1  0
  6  7  1  0
  7  8  2  0
  8  9  1  0
  9 10  2  0
 10 11  1  0
 11 12  2  0
 12 13  1  0
 12 14  1  0
 14 15  2  0
 15  9  1  0
 15 16  1  0
 16  6  1  0
 16 17  2  0
  8 18  1  0
 18 19  2  0
 18 20  1  0
 20 21  2  0
 21 22  1  0
 22 23  1  0
 23 24  1  0
 22 25  2  0
 25 26  1  0
 26 27  2  0
 27 20  1  0
 27  7  1  0
M  END
> <Smiles>
CNCCCn1c2c(c3ccc(Cl)cc3c1=O)C(=O)c1cc(OC)cnc1-2

> <ID>
CHEMBL4077196

> <standard_value>
730

> <IC50_uM>
0.73

> <Activity>
Yes

> <pIC50>
6.13667714

> <BCI>
1

$$$$

  SciTegic03012415362D

 23 26  0  0  1  0            999 V2000
    5.1996   -1.4928    0.0000 C   0  0
    3.8990   -0.7455    0.0000 C   0  0
    2.6003   -1.4977    0.0000 N   0  0
    1.2990   -0.7500    0.0000 C   0  0
    1.2990    0.7500    0.0000 C   0  0
    0.0000    1.5000    0.0000 C   0  0
   -1.2990    0.7500    0.0000 C   0  0
   -1.2990   -0.7500    0.0000 C   0  0
    0.0000   -1.5000    0.0000 C   0  0
    0.0000   -3.0000    0.0000 O   0  0
   -2.5981    1.5000    0.0000 C   0  0
   -2.5981    3.0000    0.0000 C   0  0
   -1.2991    3.7500    0.0000 C   0  0  2  0  0  0
    0.0000    3.0000    0.0000 C   0  0  2  0  0  0
    1.2990    3.7500    0.0000 C   0  0
    1.2990    5.2500    0.0000 C   0  0
    0.0000    6.0000    0.0000 C   0  0  2  0  0  0
    1.2211    6.8711    0.0000 C   0  0
   -0.2851    7.4666    0.0000 C   0  0  1  0  0  0
    0.7318    8.5693    0.0000 O   0  0
   -1.7759    7.6329    0.0000 C   0  0
   -2.3947    6.2665    0.0000 C   0  0
   -1.2991    5.2500    0.0000 C   0  0  1  0  0  0
  1  2  1  0
  2  3  1  0
  3  4  1  0
  4  5  2  0
  5  6  1  0
  6  7  2  0
  7  8  1  0
  8  9  2  0
  9  4  1  0
  9 10  1  0
  7 11  1  0
 11 12  1  0
 13 12  1  1
 13 14  1  0
 14  6  1  0
 14 15  1  6
 15 16  1  0
 16 17  1  0
 17 18  1  6
 17 19  1  0
 19 20  1  6
 19 21  1  0
 21 22  1  0
 23 22  1  6
 23 13  1  0
 23 17  1  0
M  END
> <Smiles>
CCNc1cc2c(cc1O)CC[C@@H]1[C@@H]2CC[C@]2(C)[C@@H](O)CC[C@@H]12

> <ID>
CHEMBL1627445

> <standard_value>
740

> <IC50_uM>
0.74

> <Activity>
Yes

> <pIC50>
6.13076828

> <BCI>
1

$$$$

  SciTegic03012415362D

 30 35  0  0  0  0            999 V2000
   16.1571    1.3388    0.0000 O   0  0
   14.8581    2.0888    0.0000 C   0  0
   14.8581    3.5888    0.0000 C   0  0
   16.1571    4.3388    0.0000 C   0  0
   16.1571    5.8388    0.0000 C   0  0
   14.8581    6.5888    0.0000 C   0  0
   13.5590    5.8388    0.0000 C   0  0
   13.5591    4.3388    0.0000 C   0  0
   12.2600    3.5888    0.0000 C   0  0
   12.2600    2.0888    0.0000 C   0  0
   13.5591    1.3388    0.0000 N   0  0
   13.2476   -0.1277    0.0000 C   0  0
   11.7558   -0.2845    0.0000 C   0  0
   11.1457    1.0858    0.0000 C   0  0
    9.6551    1.2431    0.0000 N   0  0
    8.7734    0.0296    0.0000 C   0  0
    7.2816    0.1864    0.0000 C   0  0
    6.4000   -1.0272    0.0000 C   0  0
    7.0101   -2.3975    0.0000 C   0  0
    8.5019   -2.5543    0.0000 C   0  0
    9.3835   -1.3407    0.0000 C   0  0
   10.8753   -1.4975    0.0000 C   0  0
   11.4891   -2.8671    0.0000 C   0  0
   12.9820   -3.0212    0.0000 C   0  0
   13.5959   -4.3908    0.0000 C   0  0
   15.0888   -4.5449    0.0000 N   0  0
   15.8221   -5.8388    0.0000 C   0  0
   17.2881   -5.5212    0.0000 C   0  0
   17.4390   -4.0288    0.0000 N   0  0
   16.0664   -3.4241    0.0000 C   0  0
  1  2  2  0
  2  3  1  0
  3  4  2  0
  4  5  1  0
  5  6  2  0
  6  7  1  0
  7  8  2  0
  8  3  1  0
  8  9  1  0
  9 10  2  0
 10 11  1  0
 11  2  1  0
 11 12  1  0
 12 13  1  0
 13 14  2  0
 14 10  1  0
 14 15  1  0
 15 16  2  0
 16 17  1  0
 17 18  2  0
 18 19  1  0
 19 20  2  0
 20 21  1  0
 21 16  1  0
 21 22  2  0
 22 13  1  0
 22 23  1  0
 23 24  1  0
 24 25  1  0
 25 26  1  0
 26 27  1  0
 27 28  2  0
 28 29  1  0
 29 30  2  0
 30 26  1  0
M  END
> <Smiles>
O=C(O)C(F)(F)F.O=c1c2ccccc2cc2n1Cc1c-2nc2ccccc2c1CCCn1ccnc1

> <ID>
CHEMBL479237

> <standard_value>
740

> <IC50_uM>
0.74

> <Activity>
Yes

> <pIC50>
6.13076828

> <BCI>
1

> <RemovedSalts>
OC(=O)C(F)(F)F

$$$$

  SciTegic03012415362D

 31 35  0  0  0  0            999 V2000
    7.7808  -10.5183    0.0000 N   0  0
    6.4833   -9.7656    0.0000 C   0  0
    6.4855   -8.2648    0.0000 C   0  0
    5.1873   -7.5117    0.0000 C   0  0
    5.1894   -6.0109    0.0000 C   0  0
    3.8912   -5.2578    0.0000 C   0  0
    3.8933   -3.7570    0.0000 C   0  0
    2.5951   -3.0039    0.0000 N   0  0
    2.5973   -1.5031    0.0000 C   0  0
    1.2990   -0.7500    0.0000 C   0  0
    1.2990    0.7500    0.0000 C   0  0
    0.0000    1.5000    0.0000 C   0  0
   -1.2990    0.7500    0.0000 N   0  0
   -1.2990   -0.7500    0.0000 C   0  0
   -2.5981   -1.5000    0.0000 C   0  0
   -2.5981   -3.0000    0.0000 C   0  0
   -1.2990   -3.7500    0.0000 C   0  0
    0.0000   -3.0000    0.0000 C   0  0
    0.0000   -1.5000    0.0000 C   0  0
    0.3114    2.9665    0.0000 C   0  0
   -0.5701    4.1788    0.0000 C   0  0
    0.0400    5.5491    0.0000 C   0  0
   -0.8417    6.7626    0.0000 C   0  0
   -0.2316    8.1329    0.0000 C   0  0
    1.2602    8.2897    0.0000 C   0  0
    2.1419    7.0762    0.0000 C   0  0
    1.5318    5.7059    0.0000 C   0  0
    2.4134    4.4924    0.0000 C   0  0
    3.9053    4.6488    0.0000 O   0  0
    1.8032    3.1233    0.0000 N   0  0
    2.4133    1.7530    0.0000 C   0  0
  1  2  1  0
  2  3  1  0
  3  4  1  0
  4  5  1  0
  5  6  1  0
  6  7  1  0
  7  8  1  0
  8  9  1  0
  9 10  1  0
 10 11  2  0
 11 12  1  0
 12 13  2  0
 13 14  1  0
 14 15  2  0
 15 16  1  0
 16 17  2  0
 17 18  1  0
 18 19  2  0
 19 10  1  0
 19 14  1  0
 12 20  1  0
 20 21  2  0
 21 22  1  0
 22 23  2  0
 23 24  1  0
 24 25  2  0
 25 26  1  0
 26 27  2  0
 27 22  1  0
 27 28  1  0
 28 29  2  0
 28 30  1  0
 30 20  1  0
 30 31  1  0
 31 11  1  0
M  END
> <Smiles>
Cl.NCCCCCCNCc1c2c(nc3ccccc13)-c1cc3ccccc3c(=O)n1C2

> <ID>
CHEMBL595202

> <standard_value>
740

> <IC50_uM>
0.74

> <Activity>
Yes

> <pIC50>
6.13076828

> <BCI>
1

> <RemovedSalts>
HCl

$$$$

  SciTegic03012415362D

 31 35  0  0  1  0            999 V2000
    4.2021   -2.6399    0.0000 C   0  0
    3.7381   -1.2135    0.0000 C   0  0
    4.6198    0.0000    0.0000 C   0  0
    6.1198    0.0000    0.0000 O   0  0
    3.7381    1.2135    0.0000 O   0  0
    2.3083    0.7500    0.0000 C   0  0  2  0  0  0
    1.4266    1.9635    0.0000 C   0  0  1  0  0  0
    1.0395    3.4605    0.0000 O   0  0
    0.0000    2.4271    0.0000 C   0  0  1  0  0  0
   -0.7819    3.7072    0.0000 C   0  0
   -1.4266    1.9635    0.0000 C   0  0
   -2.3083    0.7500    0.0000 C   0  0
   -2.3083   -0.7500    0.0000 C   0  0
   -1.4266   -1.9635    0.0000 C   0  0
   -2.3096   -3.1841    0.0000 C   0  0
   -1.6973   -4.5543    0.0000 O   0  0
   -2.5770   -5.7702    0.0000 C   0  0
   -4.0690   -5.6160    0.0000 O   0  0
   -1.9646   -7.1405    0.0000 C   0  0
   -0.5054   -7.4276    0.0000 C   0  0
   -0.3437   -8.9189    0.0000 N   0  0
    0.9577   -9.6647    0.0000 C   0  0
   -1.7114   -9.5329    0.0000 C   0  0
   -2.1702  -10.9610    0.0000 C   0  0
   -3.6364  -11.2777    0.0000 C   0  0
   -4.6438  -10.1663    0.0000 C   0  0
   -4.1849   -8.7382    0.0000 C   0  0
   -2.7187   -8.4215    0.0000 C   0  0
    0.0000   -2.4271    0.0000 C   0  0
    1.4266   -1.9635    0.0000 C   0  0
    2.3083   -0.7500    0.0000 C   0  0  1  0  0  0
  1  2  2  0
  2  3  1  0
  3  4  2  0
  3  5  1  0
  6  5  1  1
  6  7  1  0
  7  8  1  6
  8  9  1  0
  9  7  1  0
  9 10  1  6
  9 11  1  0
 11 12  1  0
 12 13  1  0
 13 14  2  0
 14 15  1  0
 15 16  1  0
 16 17  1  0
 17 18  2  0
 17 19  1  0
 19 20  2  0
 20 21  1  0
 21 22  1  0
 21 23  1  0
 23 24  2  0
 24 25  1  0
 25 26  2  0
 26 27  1  0
 27 28  2  0
 28 19  1  0
 28 23  1  0
 14 29  1  0
 29 30  1  0
 31 30  1  6
 31  2  1  0
 31  6  1  0
M  END
> <Smiles>
C=C1C(=O)O[C@@H]2[C@H]3O[C@]3(C)CC/C=C(/COC(=O)c3cn(C)c4ccccc34)CC[C@@H]12

> <ID>
CHEMBL4162405

> <standard_value>
740

> <IC50_uM>
0.74

> <Activity>
Yes

> <pIC50>
6.13076828

> <BCI>
1

$$$$

  SciTegic03012415362D

 31 34  0  0  1  0            999 V2000
    2.6030   -2.9977    0.0000 C   0  0
    2.6003   -1.4977    0.0000 C   0  0
    3.8983   -0.7459    0.0000 O   0  0
    1.2990   -0.7500    0.0000 C   0  0
    1.2990    0.7500    0.0000 C   0  0
    0.0000    1.5000    0.0000 C   0  0
   -1.2990    0.7500    0.0000 C   0  0  1  0  0  0
   -2.5981    1.5000    0.0000 C   0  0  2  0  0  0
   -1.2991    2.2500    0.0000 C   0  0
   -2.5981    3.0000    0.0000 C   0  0
   -3.8972    3.7500    0.0000 C   0  0
   -5.1962    3.0000    0.0000 C   0  0  1  0  0  0
   -6.4952    3.7500    0.0000 C   0  0
   -5.1789    4.4691    0.0000 C   0  0
   -7.8115    4.4692    0.0000 C   0  0
   -7.7943    2.9999    0.0000 C   0  0
   -7.7942    1.4999    0.0000 C   0  0
   -6.4952    0.7500    0.0000 C   0  0
   -5.1962    1.5000    0.0000 C   0  0  1  0  0  0
   -6.4959    2.2504    0.0000 C   0  0
   -7.7954    1.5012    0.0000 O   0  0
   -6.4955    3.7504    0.0000 O   0  0
   -3.8971    0.7500    0.0000 C   0  0  1  0  0  0
   -3.8971   -0.7500    0.0000 C   0  0
   -2.5981   -1.5000    0.0000 C   0  0
   -2.5981   -3.0000    0.0000 O   0  0
   -1.2990   -0.7500    0.0000 C   0  0  1  0  0  0
   -1.2990   -2.2500    0.0000 C   0  0
    0.0000   -1.5000    0.0000 C   0  0  1  0  0  0
   -0.0031   -3.0008    0.0000 C   0  0
   -1.3032   -3.7490    0.0000 O   0  0
  1  2  1  0
  2  3  2  0
  2  4  1  0
  4  5  2  0
  5  6  1  0
  7  6  1  6
  7  8  1  0
  8  9  1  6
  8 10  1  0
 10 11  1  0
 12 11  1  6
 12 13  1  0
 13 14  1  0
 13 15  1  0
 13 16  1  0
 16 17  1  0
 17 18  1  0
 18 19  1  0
 19 12  1  0
 19 20  1  6
 20 21  2  0
 20 22  1  0
 19 23  1  0
 23  8  1  0
 23 24  1  6
 24 25  1  0
 25 26  2  0
 25 27  1  0
 27  7  1  0
 27 28  1  6
 27 29  1  0
 29  4  1  0
 29 30  1  6
 30 31  2  0
M  END
> <Smiles>
CC(=O)C1=CC[C@H]2[C@]3(C)CC[C@H]4C(C)(C)CCC[C@]4(C(=O)O)[C@H]3CC(=O)[C@]2(C)[C@H]1C=O

> <ID>
CHEMBL251244

> <standard_value>
741.31

> <IC50_uM>
0.74131

> <Activity>
Yes

> <pIC50>
6.130000141

> <BCI>
1

$$$$

  SciTegic03012415362D

 30 32  0  0  1  0            999 V2000
    3.8983   -0.7459    0.0000 C   0  0
    2.6003   -1.4977    0.0000 O   0  0
    1.2990   -0.7500    0.0000 C   0  0
    1.2990    0.7500    0.0000 C   0  0
    0.0000    1.5000    0.0000 C   0  0
   -1.2990    0.7500    0.0000 C   0  0
   -2.5987    1.5004    0.0000 C   0  0  1  0  0  0
   -2.7390    2.9810    0.0000 C   0  0  2  0  0  0
   -1.6193    3.9804    0.0000 C   0  0
   -0.1673    3.6256    0.0000 C   0  0
    0.8689    4.7101    0.0000 C   0  0
    2.3264    4.3518    0.0000 O   0  0
    2.7454    2.9115    0.0000 C   0  0
    0.4478    6.1498    0.0000 C   0  0
    1.4824    7.2371    0.0000 O   0  0
    1.0592    8.6761    0.0000 C   0  0
   -1.0096    6.5049    0.0000 C   0  0
   -1.4339    7.9445    0.0000 O   0  0
   -2.8918    8.2976    0.0000 C   0  0
   -2.0458    5.4204    0.0000 C   0  0
   -4.2067    3.2905    0.0000 C   0  0
   -4.8190    4.6599    0.0000 C   0  0
   -4.9546    1.9903    0.0000 N   0  0
   -3.9492    0.8772    0.0000 N   0  0
   -4.2501   -0.5904    0.0000 C   0  0
   -3.1279   -1.5857    0.0000 C   0  0
   -5.6730   -1.0652    0.0000 O   0  0
   -1.2990   -0.7500    0.0000 C   0  0
    0.0000   -1.5000    0.0000 C   0  0
    0.0000   -3.0000    0.0000 O   0  0
  1  2  1  0
  2  3  1  0
  3  4  2  0
  4  5  1  0
  5  6  2  0
  7  6  1  6
  7  8  1  0
  8  9  1  1
  9 10  2  0
 10 11  1  0
 11 12  1  0
 12 13  1  0
 11 14  2  0
 14 15  1  0
 15 16  1  0
 14 17  1  0
 17 18  1  0
 18 19  1  0
 17 20  2  0
 20  9  1  0
  8 21  1  0
 21 22  1  0
 21 23  2  0
 23 24  1  0
 24  7  1  0
 24 25  1  0
 25 26  1  0
 25 27  2  0
  6 28  1  0
 28 29  2  0
 29  3  1  0
 29 30  1  0
M  END
> <Smiles>
COc1ccc([C@H]2[C@H](c3cc(OC)c(OC)c(OC)c3)C(C)=NN2C(C)=O)cc1O

> <ID>
CHEMBL1802211

> <standard_value>
741.31

> <IC50_uM>
0.74131

> <Activity>
Yes

> <pIC50>
6.130000141

> <BCI>
1

$$$$

  SciTegic03012415362D

 24 26  0  0  1  0            999 V2000
    4.7963   -5.7295    0.0000 C   0  0
    4.0505   -4.4281    0.0000 C   0  0
    4.8050   -3.1317    0.0000 C   0  0
    2.5497   -4.4224    0.0000 C   0  0  2  0  0  0
    1.8032   -3.1233    0.0000 C   0  0
    2.4133   -1.7530    0.0000 N   0  0
    1.2990   -0.7500    0.0000 C   0  0
    1.2990    0.7500    0.0000 C   0  0
    0.0000    1.5000    0.0000 C   0  0
   -1.2990    0.7500    0.0000 C   0  0
   -1.2990   -0.7500    0.0000 C   0  0
    0.0000   -1.5000    0.0000 C   0  0
    0.3114   -2.9665    0.0000 O   0  0
    1.7974   -5.7210    0.0000 N   0  0
    2.4137   -7.0746    0.0000 C   0  0
    1.2954   -8.0744    0.0000 C   0  0
    1.4437   -9.5653    0.0000 C   0  0
    0.2252  -10.4414    0.0000 C   0  0
    0.3738  -11.9349    0.0000 C   0  0
    1.7409  -12.5522    0.0000 O   0  0
   -0.8448  -12.8110    0.0000 N   0  0
   -0.6963  -14.3037    0.0000 O   0  0
   -0.0010   -7.3198    0.0000 N   0  0
    0.3160   -5.8537    0.0000 N   0  0
  1  2  1  0
  2  3  1  0
  4  2  1  1
  4  5  1  0
  5  6  2  0
  6  7  1  0
  7  8  2  0
  8  9  1  0
  9 10  2  0
 10 11  1  0
 11 12  2  0
 12  7  1  0
 12 13  1  0
 13  5  1  0
  4 14  1  0
 14 15  1  0
 15 16  2  0
 16 17  1  0
 17 18  2  0
 18 19  1  0
 19 20  2  0
 19 21  1  0
 21 22  1  0
 16 23  1  0
 23 24  2  0
 24 14  1  0
M  END
> <Smiles>
CC(C)[C@H](c1nc2ccccc2o1)n1cc(/C=C/C(=O)NO)nn1

> <ID>
CHEMBL2036469

> <standard_value>
750

> <IC50_uM>
0.75

> <Activity>
Yes

> <pIC50>
6.124938737

> <BCI>
1

$$$$

  SciTegic03012415362D

 18 20  0  0  0  0            999 V2000
    5.8570   -1.2946    0.0000 C   0  0
    5.1047    0.0031    0.0000 C   0  0
    5.8528    1.3033    0.0000 O   0  0
    3.6065    0.0000    0.0000 C   0  0
    2.7248   -1.2135    0.0000 C   0  0
    1.2990   -0.7500    0.0000 C   0  0
    1.2990    0.7500    0.0000 C   0  0
    2.7248    1.2135    0.0000 S   0  0
    0.0000    1.5000    0.0000 C   0  0
    0.0000    3.0000    0.0000 O   0  0
   -1.2990    0.7500    0.0000 C   0  0
   -2.5981    1.5000    0.0000 C   0  0
   -3.8971    0.7500    0.0000 C   0  0
   -3.8971   -0.7500    0.0000 C   0  0
   -2.5981   -1.5000    0.0000 C   0  0
   -1.2990   -0.7500    0.0000 C   0  0
    0.0000   -1.5000    0.0000 C   0  0
    0.0000   -3.0000    0.0000 O   0  0
  1  2  1  0
  2  3  2  0
  2  4  1  0
  4  5  2  0
  5  6  1  0
  6  7  2  0
  7  8  1  0
  8  4  1  0
  7  9  1  0
  9 10  2  0
  9 11  1  0
 11 12  2  0
 12 13  1  0
 13 14  2  0
 14 15  1  0
 15 16  2  0
 16 11  1  0
 16 17  1  0
 17  6  1  0
 17 18  2  0
M  END
> <Smiles>
CC(=O)c1cc2c(s1)C(=O)c1ccccc1C2=O

> <ID>
CHEMBL93347

> <standard_value>
758.58

> <IC50_uM>
0.75858

> <Activity>
Yes

> <pIC50>
6.119998612

> <BCI>
1

$$$$

  SciTegic03012415362D

 43 47  0  0  0  0            999 V2000
    1.2948   -3.7516    0.0000 O   0  0
    2.5951   -3.0039    0.0000 C   0  0
    2.5973   -1.5031    0.0000 N   0  0
    1.2990   -0.7500    0.0000 C   0  0
    1.2990    0.7500    0.0000 C   0  0
    0.0000    1.5000    0.0000 C   0  0
   -1.2990    0.7500    0.0000 C   0  0
   -1.2990   -0.7500    0.0000 C   0  0
   -2.5987   -1.5004    0.0000 N   0  0
   -3.9511   -0.8815    0.0000 C   0  0
   -4.9530   -1.9978    0.0000 C   0  0
   -6.4458   -1.8433    0.0000 C   0  0
   -7.1563   -0.5279    0.0000 C   0  0
   -8.6557   -0.4862    0.0000 C   0  0
   -9.4415   -1.7638    0.0000 N   0  0
   -8.7279   -3.0832    0.0000 C   0  0
   -7.2285   -3.1250    0.0000 C   0  0
   -4.2010   -3.2957    0.0000 C   0  0
   -4.8092   -4.6676    0.0000 C   0  0
   -6.2798   -4.9368    0.0000 C   0  0
   -6.7828   -6.3500    0.0000 C   0  0
   -5.8105   -7.4922    0.0000 C   0  0
   -6.3135   -8.9053    0.0000 Cl  0  0
   -4.3352   -7.2212    0.0000 C   0  0
   -3.3629   -8.3634    0.0000 O   0  0
   -3.8322   -5.8081    0.0000 C   0  0
   -2.7343   -2.9815    0.0000 N   0  0
    0.0000   -1.5000    0.0000 C   0  0
    3.8933   -3.7570    0.0000 N   0  0
    3.8912   -5.2578    0.0000 C   0  0
    5.1876   -6.0124    0.0000 C   0  0
    5.1824   -7.5124    0.0000 C   0  0
    6.4796   -8.2673    0.0000 C   0  0
    7.7817   -7.5226    0.0000 F   0  0
    6.4739   -9.7673    0.0000 F   0  0
    7.7757   -9.0224    0.0000 F   0  0
    3.8808   -8.2579    0.0000 C   0  0
    2.5844   -7.5034    0.0000 C   0  0
    1.2820   -8.2493    0.0000 C   0  0
    1.2759   -9.7493    0.0000 F   0  0
   -0.0142   -7.4944    0.0000 F   0  0
   -0.0200   -8.9942    0.0000 F   0  0
    2.5895   -6.0034    0.0000 C   0  0
  1  2  2  0
  2  3  1  0
  3  4  1  0
  4  5  2  0
  5  6  1  0
  6  7  2  0
  7  8  1  0
  8  9  1  0
  9 10  1  0
 10 11  2  0
 11 12  1  0
 12 13  2  0
 13 14  1  0
 14 15  2  0
 15 16  1  0
 16 17  2  0
 17 12  1  0
 11 18  1  0
 18 19  1  0
 19 20  2  0
 20 21  1  0
 21 22  2  0
 22 23  1  0
 22 24  1  0
 24 25  1  0
 24 26  2  0
 26 19  1  0
 18 27  2  0
 27  9  1  0
  8 28  2  0
 28  4  1  0
  2 29  1  0
 29 30  1  0
 30 31  2  0
 31 32  1  0
 32 33  1  0
 33 34  1  0
 33 35  1  0
 33 36  1  0
 32 37  2  0
 37 38  1  0
 38 39  1  0
 39 40  1  0
 39 41  1  0
 39 42  1  0
 38 43  2  0
 43 30  1  0
M  END
> <Smiles>
O=C(Nc1cccc(-n2cc(-c3ccncc3)c(-c3ccc(Cl)c(O)c3)n2)c1)Nc1cc(C(F)(F)F)cc(C(F)(F)F)c1

> <ID>
CHEMBL2441800

> <standard_value>
765

> <IC50_uM>
0.765

> <Activity>
Yes

> <pIC50>
6.116338565

> <BCI>
1

$$$$

  SciTegic03012415362D

 40 44  0  0  0  0            999 V2000
    1.2948   -3.7516    0.0000 O   0  0
    2.5951   -3.0039    0.0000 C   0  0
    2.5973   -1.5031    0.0000 N   0  0
    1.2990   -0.7500    0.0000 C   0  0
    1.2990    0.7500    0.0000 C   0  0
    0.0000    1.5000    0.0000 C   0  0
   -1.2990    0.7500    0.0000 C   0  0
   -1.2990   -0.7500    0.0000 C   0  0
   -2.5987   -1.5004    0.0000 N   0  0
   -3.9511   -0.8815    0.0000 C   0  0
   -4.9530   -1.9978    0.0000 C   0  0
   -6.4458   -1.8433    0.0000 C   0  0
   -7.1563   -0.5279    0.0000 C   0  0
   -8.6557   -0.4862    0.0000 C   0  0
   -9.4415   -1.7638    0.0000 N   0  0
   -8.7279   -3.0832    0.0000 C   0  0
   -7.2285   -3.1250    0.0000 C   0  0
   -4.2010   -3.2957    0.0000 C   0  0
   -4.8092   -4.6676    0.0000 C   0  0
   -6.2798   -4.9368    0.0000 C   0  0
   -6.7828   -6.3500    0.0000 C   0  0
   -5.8105   -7.4922    0.0000 C   0  0
   -6.3135   -8.9053    0.0000 Cl  0  0
   -4.3352   -7.2212    0.0000 C   0  0
   -3.3629   -8.3634    0.0000 O   0  0
   -3.8322   -5.8081    0.0000 C   0  0
   -2.7343   -2.9815    0.0000 N   0  0
    0.0000   -1.5000    0.0000 C   0  0
    3.8933   -3.7570    0.0000 N   0  0
    3.8912   -5.2578    0.0000 C   0  0
    5.1876   -6.0124    0.0000 C   0  0
    5.1824   -7.5124    0.0000 C   0  0
    3.8808   -8.2579    0.0000 C   0  0
    3.8756   -9.7579    0.0000 Cl  0  0
    2.5844   -7.5034    0.0000 C   0  0
    1.2820   -8.2493    0.0000 C   0  0
    1.2759   -9.7493    0.0000 F   0  0
   -0.0142   -7.4944    0.0000 F   0  0
   -0.0200   -8.9942    0.0000 F   0  0
    2.5895   -6.0034    0.0000 C   0  0
  1  2  2  0
  2  3  1  0
  3  4  1  0
  4  5  2  0
  5  6  1  0
  6  7  2  0
  7  8  1  0
  8  9  1  0
  9 10  1  0
 10 11  2  0
 11 12  1  0
 12 13  2  0
 13 14  1  0
 14 15  2  0
 15 16  1  0
 16 17  2  0
 17 12  1  0
 11 18  1  0
 18 19  1  0
 19 20  2  0
 20 21  1  0
 21 22  2  0
 22 23  1  0
 22 24  1  0
 24 25  1  0
 24 26  2  0
 26 19  1  0
 18 27  2  0
 27  9  1  0
  8 28  2  0
 28  4  1  0
  2 29  1  0
 29 30  1  0
 30 31  2  0
 31 32  1  0
 32 33  2  0
 33 34  1  0
 33 35  1  0
 35 36  1  0
 36 37  1  0
 36 38  1  0
 36 39  1  0
 35 40  2  0
 40 30  1  0
M  END
> <Smiles>
O=C(Nc1cccc(-n2cc(-c3ccncc3)c(-c3ccc(Cl)c(O)c3)n2)c1)Nc1ccc(Cl)c(C(F)(F)F)c1

> <ID>
CHEMBL2441799

> <standard_value>
782

> <IC50_uM>
0.782

> <Activity>
Yes

> <pIC50>
6.106793247

> <BCI>
1

$$$$

  SciTegic03012415362D

 42 46  0  0  0  0            999 V2000
    7.7808  -10.5183    0.0000 C   0  0
    6.4833   -9.7656    0.0000 N   0  0
    6.4855   -8.2648    0.0000 C   0  0
    5.1873   -7.5117    0.0000 C   0  0
    5.1894   -6.0109    0.0000 C   0  0
    3.8912   -5.2578    0.0000 N   0  0
    3.8933   -3.7570    0.0000 C   0  0
    2.5951   -3.0039    0.0000 C   0  0
    2.5973   -1.5031    0.0000 C   0  0
    1.2990   -0.7500    0.0000 N   0  0
    1.2990    0.7500    0.0000 C   0  0
    2.5981    1.5000    0.0000 O   0  0
    0.0000    1.5000    0.0000 C   0  0
    0.0000    3.0000    0.0000 C   0  0
   -1.2991    3.7500    0.0000 C   0  0
   -2.5981    3.0000    0.0000 C   0  0
   -2.5981    1.5000    0.0000 C   0  0
   -3.8971    0.7500    0.0000 C   0  0
   -3.8971   -0.7500    0.0000 C   0  0
   -2.5981   -1.5000    0.0000 C   0  0
   -1.2990   -0.7500    0.0000 C   0  0
   -1.2990    0.7500    0.0000 C   0  0
    0.0000   -1.5000    0.0000 C   0  0
    0.0000   -3.0000    0.0000 O   0  0
   -5.1962    1.5000    0.0000 C   0  0
   -6.4952    0.7500    0.0000 O   0  0
   -5.1962    3.0000    0.0000 N   0  0
   -6.4944    3.7531    0.0000 C   0  0
   -6.4923    5.2539    0.0000 C   0  0
   -7.7905    6.0070    0.0000 C   0  0
   -7.7883    7.5078    0.0000 N   0  0
   -9.0866    8.2609    0.0000 C   0  0
   -9.0844    9.7617    0.0000 C   0  0
   -7.7828   10.5073    0.0000 C   0  0
   -7.7776   12.0073    0.0000 C   0  0
   -9.0740   12.7618    0.0000 C   0  0
  -10.3757   12.0162    0.0000 C   0  0
  -10.3808   10.5163    0.0000 C   0  0
  -11.6847    9.7730    0.0000 O   0  0
  -12.9801   10.5294    0.0000 C   0  0
   -3.8971    3.7500    0.0000 C   0  0
   -3.8971    5.2500    0.0000 O   0  0
  1  2  1  0
  2  3  1  0
  3  4  1  0
  4  5  1  0
  5  6  1  0
  6  7  1  0
  7  8  1  0
  8  9  1  0
  9 10  1  0
 10 11  1  0
 11 12  2  0
 11 13  1  0
 13 14  2  0
 14 15  1  0
 15 16  2  0
 16 17  1  0
 17 18  2  0
 18 19  1  0
 19 20  2  0
 20 21  1  0
 21 22  2  0
 22 13  1  0
 22 17  1  0
 21 23  1  0
 23 10  1  0
 23 24  2  0
 18 25  1  0
 25 26  2  0
 25 27  1  0
 27 28  1  0
 28 29  1  0
 29 30  1  0
 30 31  1  0
 31 32  1  0
 32 33  1  0
 33 34  2  0
 34 35  1  0
 35 36  2  0
 36 37  1  0
 37 38  2  0
 38 33  1  0
 38 39  1  0
 39 40  1  0
 27 41  1  0
 41 16  1  0
 41 42  2  0
M  END
> <Smiles>
CNCCCNCCCN1C(=O)c2ccc3c4c(ccc(c24)C1=O)C(=O)N(CCCNCc1ccccc1OC)C3=O

> <ID>
CHEMBL4074553

> <standard_value>
782

> <IC50_uM>
0.782

> <Activity>
Yes

> <pIC50>
6.106793247

> <BCI>
1

$$$$

  SciTegic03012415362D

 26 28  0  0  1  0            999 V2000
    4.3246   -5.2388    0.0000 N   0  0
    5.2871   -4.0883    0.0000 C   0  0  1  0  0  0
    4.7712   -2.6789    0.0000 C   0  0
    3.2929   -2.4200    0.0000 S   0  0
    2.7771   -1.0106    0.0000 C   0  0
    1.2990   -0.7500    0.0000 C   0  0
    1.2990    0.7500    0.0000 C   0  0
    0.0000    1.5000    0.0000 C   0  0
   -1.2990    0.7500    0.0000 C   0  0
   -1.2990   -0.7500    0.0000 C   0  0
    0.0000   -1.5000    0.0000 C   0  0
    3.7424    0.1386    0.0000 C   0  0
    5.2195   -0.1226    0.0000 C   0  0
    6.1843    1.0259    0.0000 C   0  0
    5.6720    2.4357    0.0000 C   0  0
    4.1949    2.6970    0.0000 C   0  0
    3.2302    1.5484    0.0000 C   0  0
    1.8135   -2.1611    0.0000 C   0  0
    2.3277   -3.5702    0.0000 C   0  0
    1.3646   -4.7201    0.0000 C   0  0
   -0.1129   -4.4610    0.0000 C   0  0
   -0.6272   -3.0519    0.0000 C   0  0
    0.3360   -1.9020    0.0000 C   0  0
    6.7654   -4.3473    0.0000 C   0  0
    7.2809   -5.7559    0.0000 O   0  0
    7.7279   -3.1968    0.0000 O   0  0
  2  1  1  1
  2  3  1  0
  3  4  1  0
  4  5  1  0
  5  6  1  0
  6  7  2  0
  7  8  1  0
  8  9  2  0
  9 10  1  0
 10 11  2  0
 11  6  1  0
  5 12  1  0
 12 13  2  0
 13 14  1  0
 14 15  2  0
 15 16  1  0
 16 17  2  0
 17 12  1  0
  5 18  1  0
 18 19  2  0
 19 20  1  0
 20 21  2  0
 21 22  1  0
 22 23  2  0
 23 18  1  0
  2 24  1  0
 24 25  2  0
 24 26  1  0
M  END
> <Smiles>
N[C@@H](CSC(c1ccccc1)(c1ccccc1)c1ccccc1)C(=O)O

> <ID>
CHEMBL392695

> <standard_value>
790

> <IC50_uM>
0.79

> <Activity>
Yes

> <pIC50>
6.102372909

> <BCI>
1

$$$$

  SciTegic03012415362D

 37 41  0  0  0  0            999 V2000
   11.2921    6.4041    0.0000 C   0  0
   10.5759    7.7220    0.0000 O   0  0
    9.0756    7.7617    0.0000 C   0  0
    8.2942    6.4813    0.0000 C   0  0
    6.7996    6.5186    0.0000 C   0  0
    5.9236    5.3000    0.0000 C   0  0  3  0  0  0
    6.3943    3.8758    0.0000 C   0  0
    5.1852    3.0098    0.0000 C   0  0
    5.1903    1.5091    0.0000 C   0  0
    6.4920    0.7636    0.0000 C   0  0
    6.4972   -0.7364    0.0000 C   0  0
    5.2007   -1.4909    0.0000 C   0  0
    3.8990   -0.7455    0.0000 C   0  0
    2.6003   -1.4977    0.0000 N   0  0
    1.2990   -0.7500    0.0000 C   0  0
    1.2990    0.7500    0.0000 C   0  0
    0.0000    1.5000    0.0000 C   0  0
   -1.2990    0.7500    0.0000 N   0  0
   -1.2990   -0.7500    0.0000 C   0  0
   -2.5981   -1.5000    0.0000 C   0  0
   -2.5981   -3.0000    0.0000 C   0  0
   -3.8971   -3.7500    0.0000 Cl  0  0
   -1.2990   -3.7500    0.0000 C   0  0
    0.0000   -3.0000    0.0000 C   0  0
    0.0000   -1.5000    0.0000 C   0  0
    3.8939    0.7546    0.0000 C   0  0
    3.9673    3.8635    0.0000 N   0  0
    4.4236    5.2924    0.0000 N   0  0
    3.5344    6.4982    0.0000 C   0  0
    2.0436    6.3318    0.0000 O   0  0
    6.0765    7.8347    0.0000 C   0  0
    6.8579    9.1151    0.0000 C   0  0
    6.1366   10.4313    0.0000 O   0  0
    4.6370   10.4657    0.0000 C   0  0
    8.3574    9.0786    0.0000 C   0  0
    9.1419   10.3581    0.0000 O   0  0
   10.6414   10.3194    0.0000 C   0  0
  1  2  1  0
  2  3  1  0
  3  4  2  0
  4  5  1  0
  6  5  1  4
  6  7  1  0
  7  8  1  0
  8  9  1  0
  9 10  2  0
 10 11  1  0
 11 12  2  0
 12 13  1  0
 13 14  1  0
 14 15  1  0
 15 16  2  0
 16 17  1  0
 17 18  2  0
 18 19  1  0
 19 20  2  0
 20 21  1  0
 21 22  1  0
 21 23  2  0
 23 24  1  0
 24 25  2  0
 25 15  1  0
 25 19  1  0
 13 26  2  0
 26  9  1  0
  8 27  2  0
 27 28  1  0
 28  6  1  0
 28 29  1  0
 29 30  2  0
  5 31  2  0
 31 32  1  0
 32 33  1  0
 33 34  1  0
 32 35  2  0
 35  3  1  0
 35 36  1  0
 36 37  1  0
M  END
> <Smiles>
COc1cc(C2CC(c3cccc(Nc4ccnc5cc(Cl)ccc45)c3)=NN2C=O)cc(OC)c1OC

> <ID>
CHEMBL2417841

> <standard_value>
810

> <IC50_uM>
0.81

> <Activity>
Yes

> <pIC50>
6.091514981

> <BCI>
1

$$$$

  SciTegic03012415362D

 21 22  0  0  0  0            999 V2000
    2.6030   -2.9977    0.0000 N   0  0
    2.6003   -1.4977    0.0000 C   0  0
    3.8983   -0.7459    0.0000 O   0  0
    1.2990   -0.7500    0.0000 C   0  0
    1.2990    0.7500    0.0000 C   0  0
    0.0000    1.5000    0.0000 C   0  0
    0.0000    3.0000    0.0000 Br  0  0
   -1.2990    0.7500    0.0000 C   0  0
   -1.2990   -0.7500    0.0000 C   0  0
    0.0000   -1.5000    0.0000 C   0  0
   -0.0031   -3.0008    0.0000 N   0  0
   -1.3039   -3.7494    0.0000 C   0  0
   -2.6016   -2.9971    0.0000 O   0  0
   -1.3070   -5.2502    0.0000 C   0  0
   -2.6078   -5.9988    0.0000 C   0  0
   -2.6109   -7.4996    0.0000 C   0  0
   -3.9099   -8.2497    0.0000 C   0  0
   -3.9099   -9.7497    0.0000 C   0  0
   -2.6109  -10.4997    0.0000 C   0  0
   -1.3119   -9.7497    0.0000 C   0  0
   -1.3118   -8.2497    0.0000 C   0  0
  1  2  1  0
  2  3  2  0
  2  4  1  0
  4  5  2  0
  5  6  1  0
  6  7  1  0
  6  8  2  0
  8  9  1  0
  9 10  2  0
 10  4  1  0
 10 11  1  0
 11 12  1  0
 12 13  2  0
 12 14  1  0
 14 15  2  0
 15 16  1  0
 16 17  2  0
 17 18  1  0
 18 19  2  0
 19 20  1  0
 20 21  2  0
 21 16  1  0
M  END
> <Smiles>
NC(=O)c1cc(Br)ccc1NC(=O)/C=C/c1ccccc1

> <ID>
CHEMBL1796386

> <standard_value>
819

> <IC50_uM>
0.819

> <Activity>
Yes

> <pIC50>
6.086716098

> <BCI>
1

$$$$

  SciTegic03012415362D

 44 48  0  0  0  0            999 V2000
    3.8983   -0.7459    0.0000 C   0  0
    2.6003   -1.4977    0.0000 O   0  0
    1.2990   -0.7500    0.0000 C   0  0
    1.2990    0.7500    0.0000 C   0  0
    0.0000    1.5000    0.0000 C   0  0
    0.0000    3.0008    0.0000 C   0  0
   -1.2149    3.8587    0.0000 N   0  0
   -0.7536    5.2860    0.0000 N   0  0
   -1.6377    6.4987    0.0000 C   0  0
   -3.1320    6.4515    0.0000 C   0  0
   -3.9219    7.7267    0.0000 C   0  0
   -3.2125    9.0483    0.0000 C   0  0
   -1.7132    9.0948    0.0000 C   0  0
   -1.0007   10.4157    0.0000 N   0  0
    0.4995   10.4601    0.0000 C   0  0
    1.2871    9.1836    0.0000 O   0  0
    1.2120   11.7810    0.0000 N   0  0
    2.7121   11.8254    0.0000 C   0  0
    3.4262   13.1446    0.0000 C   0  0
    4.9256   13.1859    0.0000 C   0  0
    5.6399   14.5058    0.0000 C   0  0
    4.8553   15.7842    0.0000 F   0  0
    7.1394   14.5466    0.0000 F   0  0
    6.3545   15.8246    0.0000 F   0  0
    5.7111   11.9080    0.0000 C   0  0
    4.9971   10.5888    0.0000 C   0  0
    5.7830    9.3102    0.0000 C   0  0
    7.2825    9.3505    0.0000 F   0  0
    5.0687    7.9912    0.0000 F   0  0
    6.5679    8.0319    0.0000 F   0  0
    3.4977   10.5475    0.0000 C   0  0
   -0.9233    7.8196    0.0000 C   0  0
    0.7463    5.2884    0.0000 C   0  0
    1.2121    3.8625    0.0000 C   0  0
    2.6374    3.3926    0.0000 C   0  0
    3.0562    1.9577    0.0000 C   0  0
    4.5135    1.6025    0.0000 C   0  0
    5.5498    2.6871    0.0000 N   0  0
    5.1286    4.1268    0.0000 C   0  0
    3.6713    4.4819    0.0000 C   0  0
   -1.2990    0.7500    0.0000 C   0  0
   -1.2990   -0.7500    0.0000 C   0  0
    0.0000   -1.5000    0.0000 C   0  0
    0.0000   -3.0000    0.0000 Cl  0  0
  1  2  1  0
  2  3  1  0
  3  4  2  0
  4  5  1  0
  5  6  1  0
  6  7  2  0
  7  8  1  0
  8  9  1  0
  9 10  2  0
 10 11  1  0
 11 12  2  0
 12 13  1  0
 13 14  1  0
 14 15  1  0
 15 16  2  0
 15 17  1  0
 17 18  1  0
 18 19  2  0
 19 20  1  0
 20 21  1  0
 21 22  1  0
 21 23  1  0
 21 24  1  0
 20 25  2  0
 25 26  1  0
 26 27  1  0
 27 28  1  0
 27 29  1  0
 27 30  1  0
 26 31  2  0
 31 18  1  0
 13 32  2  0
 32  9  1  0
  8 33  1  0
 33 34  2  0
 34  6  1  0
 34 35  1  0
 35 36  2  0
 36 37  1  0
 37 38  2  0
 38 39  1  0
 39 40  2  0
 40 35  1  0
  5 41  2  0
 41 42  1  0
 42 43  2  0
 43  3  1  0
 43 44  1  0
M  END
> <Smiles>
COc1cc(-c2nn(-c3cccc(NC(=O)Nc4cc(C(F)(F)F)cc(C(F)(F)F)c4)c3)cc2-c2ccncc2)ccc1Cl

> <ID>
CHEMBL2441791

> <standard_value>
829

> <IC50_uM>
0.829

> <Activity>
Yes

> <pIC50>
6.081445469

> <BCI>
1

$$$$

  SciTegic03012415362D

 31 35  0  0  0  0            999 V2000
    5.1873   -7.5109    0.0000 C   0  0
    5.1894   -6.0109    0.0000 C   0  0
    3.8912   -5.2578    0.0000 C   0  0
    3.8933   -3.7570    0.0000 C   0  0
    2.5951   -3.0039    0.0000 C   0  0
    2.5973   -1.5031    0.0000 C   0  0
    1.2990   -0.7500    0.0000 C   0  0
    1.2990    0.7500    0.0000 C   0  0
    0.0000    1.5000    0.0000 N   0  3
   -1.2990    0.7500    0.0000 C   0  0
   -1.2990   -0.7500    0.0000 C   0  0
   -2.5981   -1.5000    0.0000 C   0  0
   -3.8994   -0.7523    0.0000 O   0  0
   -5.1973   -1.5041    0.0000 C   0  0
   -2.5981   -3.0000    0.0000 C   0  0
   -3.8963   -3.7531    0.0000 O   0  0
   -3.8941   -5.2531    0.0000 C   0  0
   -1.2990   -3.7500    0.0000 C   0  0
    0.0000   -3.0000    0.0000 C   0  0
    0.0000   -1.5000    0.0000 C   0  0
    0.0000    3.0000    0.0000 C   0  0
    1.2990    3.7500    0.0000 C   0  0
    2.5981    3.0000    0.0000 C   0  0
    3.8971    3.7500    0.0000 C   0  0
    5.1961    3.0000    0.0000 C   0  0
    5.1961    1.5000    0.0000 C   0  0
    3.8971    0.7500    0.0000 C   0  0
    2.5981    1.5000    0.0000 C   0  0
    6.6219    1.0365    0.0000 O   0  0
    7.5036    2.2500    0.0000 C   0  0
    6.6219    3.4636    0.0000 O   0  0
  1  2  1  0
  2  3  1  0
  3  4  1  0
  4  5  1  0
  5  6  1  0
  6  7  1  0
  7  8  2  0
  8  9  1  0
  9 10  2  0
 10 11  1  0
 11 12  2  0
 12 13  1  0
 13 14  1  0
 12 15  1  0
 15 16  1  0
 16 17  1  0
 15 18  2  0
 18 19  1  0
 19 20  2  0
 20  7  1  0
 20 11  1  0
  9 21  1  0
 21 22  1  0
 22 23  1  0
 23 24  2  0
 24 25  1  0
 25 26  2  0
 26 27  1  0
 27 28  2  0
 28 23  1  0
 28  8  1  0
 26 29  1  0
 29 30  1  0
 30 31  1  0
 31 25  1  0
M  CHG  1   9   1
M  END
> <Smiles>
CCCCCCc1c2[n+](cc3c(OC)c(OC)ccc13)CCc1cc3c(cc1-2)OCO3.[Cl-]

> <ID>
CHEMBL460900

> <standard_value>
830

> <IC50_uM>
0.83

> <Activity>
Yes

> <pIC50>
6.080921908

> <BCI>
1

> <RemovedSalts>
Cl-

$$$$

  SciTegic03012415362D

 68 71  0  0  1  0            999 V2000
   18.1995   -1.4701    0.0000 C   0  0
   16.8989   -0.7228    0.0000 C   0  0
   15.6002   -1.4751    0.0000 C   0  0
   14.2989   -0.7273    0.0000 C   0  0
   13.0002   -1.4796    0.0000 C   0  0
   11.6990   -0.7319    0.0000 C   0  0
   10.4003   -1.4841    0.0000 C   0  0
    9.0990   -0.7364    0.0000 C   0  0
    7.8003   -1.4887    0.0000 C   0  0
    6.4990   -0.7409    0.0000 C   0  0
    5.2003   -1.4932    0.0000 C   0  0
    3.8990   -0.7455    0.0000 C   0  0
    2.6003   -1.4977    0.0000 O   0  0
    1.2990   -0.7500    0.0000 C   0  0  2  0  0  0
    1.2990    0.7500    0.0000 O   0  0
    0.0000    1.5000    0.0000 C   0  0  1  0  0  0
    0.0000    3.0000    0.0000 C   0  0
   -1.2990    0.7500    0.0000 C   0  0  2  0  0  0
   -2.5973    1.5031    0.0000 O   0  0
   -2.5951    3.0039    0.0000 C   0  0  2  0  0  0
   -1.2935    3.7495    0.0000 O   0  0
   -1.2883    5.2495    0.0000 C   0  0  1  0  0  0
    0.0133    5.9950    0.0000 C   0  0
   -2.5848    6.0040    0.0000 C   0  0  2  0  0  0
   -2.5765    7.5048    0.0000 O   0  0
   -1.2731    8.2489    0.0000 C   0  0
    0.0220    7.4921    0.0000 C   0  0
   -1.2648    9.7488    0.0000 O   0  0
   -3.8864    5.2585    0.0000 C   0  0  1  0  0  0
   -5.1820    6.0160    0.0000 O   0  0
   -5.1747    7.5168    0.0000 C   0  0  2  0  0  0
   -3.8705    8.2579    0.0000 O   0  0
   -3.8601    9.7579    0.0000 C   0  0  1  0  0  0
   -2.5559   10.4989    0.0000 C   0  0
   -5.1539   10.5169    0.0000 C   0  0  2  0  0  0
   -5.1405   12.0176    0.0000 O   0  0
   -3.8345   12.7572    0.0000 C   0  0
   -2.5420   11.9960    0.0000 C   0  0
   -3.8211   14.2571    0.0000 O   0  0
   -6.4581    9.7758    0.0000 C   0  0  1  0  0  0
   -7.7511   10.5379    0.0000 O   0  0
   -7.7386   12.0387    0.0000 C   0  0  2  0  0  0
   -6.4318   12.7752    0.0000 O   0  0
   -6.4163   14.2752    0.0000 C   0  0  1  0  0  0
   -5.1096   15.0117    0.0000 C   0  0
   -7.7075   15.0386    0.0000 C   0  0  2  0  0  0
   -7.6889   16.5393    0.0000 O   0  0
   -6.3804   17.2743    0.0000 C   0  0
   -5.0905   16.5087    0.0000 C   0  0
   -6.3617   18.7742    0.0000 O   0  0
   -9.0142   14.3021    0.0000 C   0  0  1  0  0  0
  -10.3054   15.0655    0.0000 O   0  0
   -9.0298   12.8022    0.0000 C   0  0  1  0  0  0
  -10.3388   12.0680    0.0000 O   0  0
  -11.6296   12.8337    0.0000 C   0  0
  -11.6114   14.3336    0.0000 C   0  0
  -12.9378   12.0999    0.0000 O   0  0
   -6.4685    8.2759    0.0000 C   0  0  1  0  0  0
   -7.7749    7.5372    0.0000 O   0  0
   -9.0684    8.2984    0.0000 C   0  0
   -9.0553    9.7984    0.0000 C   0  0
  -10.3741    7.5602    0.0000 O   0  0
   -3.8915    3.7585    0.0000 C   0  0  1  0  0  0
   -5.1932    3.0130    0.0000 O   0  0
   -1.2990   -0.7500    0.0000 C   0  0  1  0  0  0
   -2.5981   -1.5000    0.0000 O   0  0
    0.0000   -1.5000    0.0000 C   0  0  1  0  0  0
    0.0000   -3.0000    0.0000 O   0  0
  1  2  1  0
  2  3  1  0
  3  4  1  0
  4  5  1  0
  5  6  1  0
  6  7  1  0
  7  8  1  0
  8  9  1  0
  9 10  1  0
 10 11  1  0
 11 12  1  0
 12 13  1  0
 14 13  1  1
 14 15  1  0
 15 16  1  0
 16 17  1  6
 16 18  1  0
 18 19  1  1
 20 19  1  1
 20 21  1  0
 21 22  1  0
 22 23  1  6
 22 24  1  0
 24 25  1  1
 25 26  1  0
 26 27  1  0
 26 28  2  0
 24 29  1  0
 29 30  1  6
 31 30  1  1
 31 32  1  0
 32 33  1  0
 33 34  1  6
 33 35  1  0
 35 36  1  1
 36 37  1  0
 37 38  1  0
 37 39  2  0
 35 40  1  0
 40 41  1  6
 42 41  1  1
 42 43  1  0
 43 44  1  0
 44 45  1  6
 44 46  1  0
 46 47  1  1
 47 48  1  0
 48 49  1  0
 48 50  2  0
 46 51  1  0
 51 52  1  6
 51 53  1  0
 53 42  1  0
 53 54  1  6
 54 55  1  0
 55 56  1  0
 55 57  2  0
 40 58  1  0
 58 31  1  0
 58 59  1  6
 59 60  1  0
 60 61  1  0
 60 62  2  0
 29 63  1  0
 63 20  1  0
 63 64  1  6
 18 65  1  0
 65 66  1  6
 65 67  1  0
 67 14  1  0
 67 68  1  6
M  END
> <Smiles>
CCCCCCCCCCCCO[C@@H]1O[C@@H](C)[C@H](O[C@@H]2O[C@@H](C)[C@H](OC(C)=O)[C@@H](O[C@@H]3O[C@@H](C)[C@H](OC(C)=O)[C@@H](O[C@@H]4O[C@@H](C)[C@H](OC(C)=O)[C@@H](O)[C@H]4OC(C)=O)[C@H]3OC(C)=O)[C@H]2O)[C@@H](O)
[C@H]1O

> <ID>
CHEMBL2204991

> <standard_value>
830

> <IC50_uM>
0.83

> <Activity>
Yes

> <pIC50>
6.080921908

> <BCI>
1

$$$$

  SciTegic03012415362D

 26 29  0  0  0  0            999 V2000
    3.8805   -1.4410    0.0000 O   0  0
    2.4133   -1.7530    0.0000 C   0  0
    1.2990   -0.7500    0.0000 C   0  0
    1.2990    0.7500    0.0000 C   0  0
    0.0000    1.5000    0.0000 C   0  0
   -1.2990    0.7500    0.0000 C   0  0
   -1.2990   -0.7500    0.0000 N   0  0
    0.0000   -1.5000    0.0000 C   0  0
    0.3114   -2.9665    0.0000 C   0  0
    1.8032   -3.1233    0.0000 C   0  0
    2.4135   -4.4923    0.0000 C   0  0
    3.9053   -4.6492    0.0000 C   0  0
    4.5154   -6.0195    0.0000 C   0  0
    3.6337   -7.2330    0.0000 C   0  0
    2.1419   -7.0762    0.0000 C   0  0
    1.5318   -5.7059    0.0000 C   0  0
    0.0400   -5.5491    0.0000 C   0  0
   -0.8417   -6.7626    0.0000 O   0  0
   -0.5701   -4.1788    0.0000 N   0  0
   -2.0630   -4.0243    0.0000 C   0  0
   -2.9439   -5.2394    0.0000 C   0  0
   -4.4368   -5.0850    0.0000 C   0  0
   -5.3177   -6.3001    0.0000 N   0  0
   -6.8105   -6.1457    0.0000 C   0  0
   -7.6915   -7.3608    0.0000 C   0  0
   -9.1835   -7.2064    0.0000 O   0  0
  1  2  2  0
  2  3  1  0
  3  4  2  0
  4  5  1  0
  5  6  2  0
  6  7  1  0
  7  8  2  0
  8  3  1  0
  8  9  1  0
  9 10  2  0
 10  2  1  0
 10 11  1  0
 11 12  2  0
 12 13  1  0
 13 14  2  0
 14 15  1  0
 15 16  2  0
 16 11  1  0
 16 17  1  0
 17 18  2  0
 17 19  1  0
 19  9  1  0
 19 20  1  0
 20 21  1  0
 21 22  1  0
 22 23  1  0
 23 24  1  0
 24 25  1  0
 25 26  1  0
M  END
> <Smiles>
O=C1c2cccnc2-c2c1c1ccccc1c(=O)n2CCCNCCO

> <ID>
CHEMBL1836119

> <standard_value>
870

> <IC50_uM>
0.87

> <Activity>
Yes

> <pIC50>
6.060480747

> <BCI>
1

$$$$

  SciTegic03012415362D

 40 44  0  0  0  0            999 V2000
    3.8983   -0.7459    0.0000 C   0  0
    2.6003   -1.4977    0.0000 O   0  0
    1.2990   -0.7500    0.0000 C   0  0
    1.2990    0.7500    0.0000 C   0  0
    0.0000    1.5000    0.0000 C   0  0
    0.0000    3.0008    0.0000 C   0  0
   -1.2149    3.8587    0.0000 N   0  0
   -0.7536    5.2860    0.0000 N   0  0
   -1.6377    6.4987    0.0000 C   0  0
   -3.1320    6.4515    0.0000 C   0  0
   -3.9219    7.7267    0.0000 C   0  0
   -3.2125    9.0483    0.0000 C   0  0
   -1.7132    9.0948    0.0000 C   0  0
   -1.0007   10.4157    0.0000 N   0  0
    0.4995   10.4601    0.0000 C   0  0
    1.2871    9.1836    0.0000 O   0  0
    1.2120   11.7810    0.0000 N   0  0
    2.7121   11.8254    0.0000 C   0  0
    3.4262   13.1446    0.0000 C   0  0
    4.9256   13.1859    0.0000 C   0  0
    5.7111   11.9080    0.0000 C   0  0
    4.9971   10.5888    0.0000 C   0  0
    5.7830    9.3102    0.0000 C   0  0
    7.2825    9.3505    0.0000 F   0  0
    5.0687    7.9912    0.0000 F   0  0
    6.5679    8.0319    0.0000 F   0  0
    3.4977   10.5475    0.0000 C   0  0
   -0.9233    7.8196    0.0000 C   0  0
    0.7463    5.2884    0.0000 C   0  0
    1.2121    3.8625    0.0000 C   0  0
    2.6374    3.3926    0.0000 C   0  0
    3.0562    1.9577    0.0000 C   0  0
    4.5135    1.6025    0.0000 C   0  0
    5.5498    2.6871    0.0000 N   0  0
    5.1286    4.1268    0.0000 C   0  0
    3.6713    4.4819    0.0000 C   0  0
   -1.2990    0.7500    0.0000 C   0  0
   -1.2990   -0.7500    0.0000 C   0  0
    0.0000   -1.5000    0.0000 C   0  0
    0.0000   -3.0000    0.0000 Cl  0  0
  1  2  1  0
  2  3  1  0
  3  4  2  0
  4  5  1  0
  5  6  1  0
  6  7  2  0
  7  8  1  0
  8  9  1  0
  9 10  2  0
 10 11  1  0
 11 12  2  0
 12 13  1  0
 13 14  1  0
 14 15  1  0
 15 16  2  0
 15 17  1  0
 17 18  1  0
 18 19  2  0
 19 20  1  0
 20 21  2  0
 21 22  1  0
 22 23  1  0
 23 24  1  0
 23 25  1  0
 23 26  1  0
 22 27  2  0
 27 18  1  0
 13 28  2  0
 28  9  1  0
  8 29  1  0
 29 30  2  0
 30  6  1  0
 30 31  1  0
 31 32  2  0
 32 33  1  0
 33 34  2  0
 34 35  1  0
 35 36  2  0
 36 31  1  0
  5 37  2  0
 37 38  1  0
 38 39  2  0
 39  3  1  0
 39 40  1  0
M  END
> <Smiles>
COc1cc(-c2nn(-c3cccc(NC(=O)Nc4cccc(C(F)(F)F)c4)c3)cc2-c2ccncc2)ccc1Cl

> <ID>
CHEMBL2441789

> <standard_value>
890

> <IC50_uM>
0.89

> <Activity>
Yes

> <pIC50>
6.050609993

> <BCI>
1

$$$$

  SciTegic03012415362D

 44 47  0  0  1  0            999 V2000
    2.5852  -10.5054    0.0000 C   0  0
    3.8853   -9.7572    0.0000 O   0  0
    3.8885   -8.2564    0.0000 C   0  0
    5.1893   -7.5079    0.0000 O   0  0
    5.1924   -6.0070    0.0000 C   0  0
    3.8934   -5.2570    0.0000 C   0  0
    3.8933   -3.7570    0.0000 C   0  0
    2.5951   -3.0039    0.0000 C   0  0
    2.5973   -1.5031    0.0000 C   0  0
    1.2990   -0.7500    0.0000 C   0  0
    1.2990    0.7500    0.0000 C   0  0
    0.0000    1.5000    0.0000 C   0  0
    0.0031    3.0008    0.0000 C   0  0
    1.3032    3.7490    0.0000 O   0  0
   -1.2990    0.7500    0.0000 C   0  0
   -1.2990   -0.7500    0.0000 C   0  0
    0.0000   -1.5000    0.0000 C   0  0
   -2.5981   -1.5000    0.0000 C   0  0
   -3.8971   -0.7500    0.0000 C   0  0  2  0  0  0
   -5.1962   -1.5000    0.0000 C   0  0
   -3.8798   -2.2191    0.0000 C   0  0
   -6.5124   -2.2193    0.0000 C   0  0
   -6.4952   -0.7500    0.0000 C   0  0  2  0  0  0
   -7.7942   -1.5000    0.0000 O   0  0
   -6.4952    0.7500    0.0000 C   0  0
   -5.1962    1.5000    0.0000 C   0  0
   -3.8971    0.7500    0.0000 C   0  0  2  0  0  0
   -3.8971    2.2500    0.0000 C   0  0
   -2.5981    1.5000    0.0000 O   0  0
    5.1925   -3.0070    0.0000 C   0  0
    6.4915   -3.7571    0.0000 C   0  0
    7.7897   -3.0040    0.0000 O   0  0
    7.7876   -1.5040    0.0000 C   0  0
    6.4915   -5.2571    0.0000 C   0  0
    7.7897   -6.0102    0.0000 C   0  0
    7.7875   -7.5110    0.0000 C   0  0
    9.0857   -8.2641    0.0000 C   0  0
   10.3860   -7.5164    0.0000 C   0  0
    9.0835   -9.7650    0.0000 C   0  0
   10.3817  -10.5181    0.0000 C   0  0
   10.3795  -12.0189    0.0000 C   0  0
   11.6777  -12.7720    0.0000 C   0  0
   11.6756  -14.2720    0.0000 C   0  0
   12.9781  -12.0243    0.0000 C   0  0
  1  2  1  0
  2  3  1  0
  3  4  1  0
  4  5  1  0
  5  6  2  0
  6  7  1  0
  7  8  1  0
  8  9  2  0
  9 10  1  0
 10 11  2  0
 11 12  1  0
 12 13  1  0
 13 14  2  0
 12 15  2  0
 15 16  1  0
 16 17  2  0
 17 10  1  0
 16 18  1  0
 19 18  1  6
 19 20  1  0
 20 21  1  0
 20 22  1  0
 20 23  1  0
 23 24  1  6
 23 25  1  0
 25 26  1  0
 26 27  1  0
 27 19  1  0
 27 28  1  6
 27 29  1  0
 29 15  1  0
  7 30  2  0
 30 31  1  0
 31 32  1  0
 32 33  1  0
 31 34  2  0
 34  5  1  0
 34 35  1  0
 35 36  1  0
 36 37  2  0
 37 38  1  0
 37 39  1  0
 39 40  1  0
 40 41  1  0
 41 42  2  0
 42 43  1  0
 42 44  1  0
M  END
> <Smiles>
COCOc1cc(/C=C/c2cc(C=O)c3c(c2)C[C@@H]2C(C)(C)[C@H](O)CC[C@@]2(C)O3)cc(OC)c1C/C=C(\C)CCC=C(C)C

> <ID>
CHEMBL1927857

> <standard_value>
891.25

> <IC50_uM>
0.89125

> <Activity>
Yes

> <pIC50>
6.050000457

> <BCI>
1

$$$$

  SciTegic03012415362D

 82 93  0  0  1  0            999 V2000
    2.6018   -5.9994    0.0000 C   0  0
    3.9008   -5.2492    0.0000 O   0  0
    3.9014   -3.7484    0.0000 C   0  0
    2.6012   -3.0004    0.0000 C   0  0
    2.5987   -1.5004    0.0000 C   0  0
    1.2990   -0.7500    0.0000 C   0  0  2  0  0  0
    1.2990    0.7500    0.0000 C   0  0
    2.5981    1.5000    0.0000 C   0  0
    2.5981    3.0000    0.0000 C   0  0
    1.2990    3.7500    0.0000 C   0  0
    0.0000    3.0000    0.0000 C   0  0
    0.0000    1.5000    0.0000 C   0  0
   -1.2990    0.7500    0.0000 C   0  0  1  0  0  0
   -2.5973    1.5031    0.0000 N   0  0
   -2.5951    3.0039    0.0000 C   0  0
   -1.2948    3.7516    0.0000 O   0  0
   -3.8933    3.7570    0.0000 C   0  0
   -3.8912    5.2578    0.0000 N   0  0
   -5.1876    6.0124    0.0000 C   0  0
   -5.1824    7.5124    0.0000 C   0  0
   -3.8808    8.2579    0.0000 N   0  0
   -3.8726    9.7587    0.0000 C   0  0
   -2.5692   10.5028    0.0000 C   0  0
   -2.5609   12.0036    0.0000 C   0  0
   -1.2575   12.7476    0.0000 C   0  0
   -1.2492   14.2484    0.0000 C   0  0
    0.0542   14.9925    0.0000 C   0  0
    0.0625   16.4933    0.0000 N   0  0
    1.3641   17.2389    0.0000 C   0  0
    1.3693   18.7388    0.0000 C   0  0
    0.0729   19.4934    0.0000 N   0  0
    0.0750   20.9942    0.0000 C   0  0
   -1.2232   21.7473    0.0000 C   0  0
   -2.5235   20.9995    0.0000 O   0  0
   -1.2211   23.2481    0.0000 N   0  0
   -2.5193   24.0012    0.0000 C   0  0  2  0  0  0
   -2.5193   25.5012    0.0000 C   0  0
   -1.2203   26.2512    0.0000 C   0  0
   -1.2203   27.7512    0.0000 C   0  0
   -2.5193   28.5012    0.0000 C   0  0
   -3.8183   27.7512    0.0000 C   0  0
   -3.8184   26.2512    0.0000 C   0  0
   -5.1174   25.5013    0.0000 C   0  0  1  0  0  0
   -6.4171   26.2517    0.0000 C   0  0
   -7.7174   25.5038    0.0000 C   0  0
   -9.0153   26.2559    0.0000 C   0  0
  -10.3147   25.5049    0.0000 O   0  0
  -10.3150   24.0049    0.0000 C   0  0
   -9.0129   27.7559    0.0000 C   0  0
  -10.3107   28.5080    0.0000 O   0  0
   -7.7126   28.5038    0.0000 C   0  0
   -7.7071   30.0046    0.0000 O   0  0
   -6.4058   30.7507    0.0000 C   0  0
   -6.4148   27.7517    0.0000 C   0  0
   -5.1174   24.0013    0.0000 C   0  0  1  0  0  0
   -6.2318   22.9983    0.0000 C   0  0
   -7.6989   23.3103    0.0000 O   0  0
   -5.6217   21.6280    0.0000 O   0  0
   -4.1299   21.7847    0.0000 C   0  0
   -3.8184   23.2512    0.0000 C   0  0  2  0  0  0
   -2.2078   29.9677    0.0000 O   0  0
   -0.7160   30.1245    0.0000 C   0  0
   -0.1059   28.7541    0.0000 O   0  0
   -1.2288   18.7479    0.0000 C   0  0
   -1.2340   17.2479    0.0000 C   0  0
   -2.5844    7.5034    0.0000 C   0  0
   -2.5896    6.0034    0.0000 C   0  0
   -1.2990   -0.7500    0.0000 C   0  0  1  0  0  0
   -2.4133   -1.7530    0.0000 C   0  0
   -1.8032   -3.1233    0.0000 O   0  0
   -0.3114   -2.9665    0.0000 C   0  0
    0.6924   -4.0811    0.0000 O   0  0
    0.0000   -1.5000    0.0000 C   0  0  2  0  0  0
    1.6104    5.2165    0.0000 O   0  0
    3.1022    5.3733    0.0000 C   0  0
    3.7123    4.0030    0.0000 O   0  0
    3.8967   -0.7484    0.0000 C   0  0
    5.1969   -1.4963    0.0000 C   0  0
    6.4939   -0.7411    0.0000 O   0  0
    6.4894    0.7589    0.0000 C   0  0
    5.1993   -2.9963    0.0000 C   0  0
    6.4995   -3.7442    0.0000 O   0  0
  1  2  1  0
  2  3  1  0
  3  4  2  0
  4  5  1  0
  6  5  1  1
  6  7  1  0
  7  8  2  0
  8  9  1  0
  9 10  2  0
 10 11  1  0
 11 12  2  0
 12  7  1  0
 12 13  1  0
 13 14  1  6
 14 15  1  0
 15 16  2  0
 15 17  1  0
 17 18  1  0
 18 19  1  0
 19 20  1  0
 20 21  1  0
 21 22  1  0
 22 23  1  0
 23 24  1  0
 24 25  1  0
 25 26  1  0
 26 27  1  0
 27 28  1  0
 28 29  1  0
 29 30  1  0
 30 31  1  0
 31 32  1  0
 32 33  1  0
 33 34  2  0
 33 35  1  0
 36 35  1  1
 36 37  1  0
 37 38  2  0
 38 39  1  0
 39 40  2  0
 40 41  1  0
 41 42  2  0
 42 37  1  0
 42 43  1  0
 43 44  1  6
 44 45  2  0
 45 46  1  0
 46 47  1  0
 47 48  1  0
 46 49  2  0
 49 50  1  0
 49 51  1  0
 51 52  1  0
 52 53  1  0
 51 54  2  0
 54 44  1  0
 43 55  1  0
 55 56  1  6
 56 57  2  0
 56 58  1  0
 58 59  1  0
 60 59  1  1
 60 55  1  0
 60 36  1  0
 40 61  1  0
 61 62  1  0
 62 63  1  0
 63 39  1  0
 31 64  1  0
 64 65  1  0
 65 28  1  0
 21 66  1  0
 66 67  1  0
 67 18  1  0
 13 68  1  0
 68 69  1  6
 69 70  1  0
 70 71  1  0
 71 72  2  0
 73 71  1  1
 73  6  1  0
 73 68  1  0
 10 74  1  0
 74 75  1  0
 75 76  1  0
 76  9  1  0
  5 77  2  0
 77 78  1  0
 78 79  1  0
 79 80  1  0
 78 81  2  0
 81  3  1  0
 81 82  1  0
M  END
> <Smiles>
COc1cc([C@@H]2c3cc4c(cc3[C@@H](NC(=O)CN3CCN(CCCCCCN5CCN(CC(=O)N[C@@H]6c7cc8c(cc7[C@@H](c7cc(OC)c(O)c(OC)c7)[C@H]7C(=O)OC[C@@H]76)OCO8)CC5)CC3)[C@H]3COC(=O)[C@H]23)OCO4)cc(OC)c1O

> <ID>
CHEMBL3589852

> <standard_value>
891.25

> <IC50_uM>
0.89125

> <Activity>
Yes

> <pIC50>
6.050000457

> <BCI>
1

$$$$

  SciTegic03012415362D

 39 43  0  0  0  0            999 V2000
    3.8983   -0.7459    0.0000 C   0  0
    2.6003   -1.4977    0.0000 O   0  0
    1.2990   -0.7500    0.0000 C   0  0
    1.2990    0.7500    0.0000 C   0  0
    0.0000    1.5000    0.0000 C   0  0
    0.0000    3.0008    0.0000 C   0  0
   -1.2149    3.8587    0.0000 N   0  0
   -0.7536    5.2860    0.0000 N   0  0
   -1.6377    6.4987    0.0000 C   0  0
   -3.1320    6.4515    0.0000 C   0  0
   -3.9219    7.7267    0.0000 C   0  0
   -3.2125    9.0483    0.0000 C   0  0
   -1.7132    9.0948    0.0000 C   0  0
   -1.0007   10.4157    0.0000 N   0  0
    0.4995   10.4601    0.0000 C   0  0
    1.2871    9.1836    0.0000 O   0  0
    1.2120   11.7810    0.0000 C   0  0
    2.7113   11.8276    0.0000 C   0  0
    3.4207   13.1492    0.0000 C   0  0
    2.6308   14.4244    0.0000 C   0  0
    1.1315   14.3780    0.0000 C   0  0
    0.3412   15.6538    0.0000 C   0  0
    1.0498   16.9759    0.0000 F   0  0
   -1.1580   15.6069    0.0000 F   0  0
   -0.4492   16.9287    0.0000 F   0  0
    0.4221   13.0563    0.0000 C   0  0
   -0.9233    7.8196    0.0000 C   0  0
    0.7463    5.2884    0.0000 C   0  0
    1.2121    3.8625    0.0000 C   0  0
    2.6374    3.3926    0.0000 C   0  0
    3.0562    1.9577    0.0000 C   0  0
    4.5135    1.6025    0.0000 C   0  0
    5.5498    2.6871    0.0000 N   0  0
    5.1286    4.1268    0.0000 C   0  0
    3.6713    4.4819    0.0000 C   0  0
   -1.2990    0.7500    0.0000 C   0  0
   -1.2990   -0.7500    0.0000 C   0  0
    0.0000   -1.5000    0.0000 C   0  0
    0.0000   -3.0000    0.0000 Cl  0  0
  1  2  1  0
  2  3  1  0
  3  4  2  0
  4  5  1  0
  5  6  1  0
  6  7  2  0
  7  8  1  0
  8  9  1  0
  9 10  2  0
 10 11  1  0
 11 12  2  0
 12 13  1  0
 13 14  1  0
 14 15  1  0
 15 16  2  0
 15 17  1  0
 17 18  2  0
 18 19  1  0
 19 20  2  0
 20 21  1  0
 21 22  1  0
 22 23  1  0
 22 24  1  0
 22 25  1  0
 21 26  2  0
 26 17  1  0
 13 27  2  0
 27  9  1  0
  8 28  1  0
 28 29  2  0
 29  6  1  0
 29 30  1  0
 30 31  2  0
 31 32  1  0
 32 33  2  0
 33 34  1  0
 34 35  2  0
 35 30  1  0
  5 36  2  0
 36 37  1  0
 37 38  2  0
 38  3  1  0
 38 39  1  0
M  END
> <Smiles>
COc1cc(-c2nn(-c3cccc(NC(=O)c4cccc(C(F)(F)F)c4)c3)cc2-c2ccncc2)ccc1Cl

> <ID>
CHEMBL2441794

> <standard_value>
895

> <IC50_uM>
0.895

> <Activity>
Yes

> <pIC50>
6.048176965

> <BCI>
1

$$$$

  SciTegic03012415362D

 39 43  0  0  0  0            999 V2000
    3.8983   -0.7459    0.0000 C   0  0
    2.6003   -1.4977    0.0000 O   0  0
    1.2990   -0.7500    0.0000 C   0  0
    1.2990    0.7500    0.0000 C   0  0
    0.0000    1.5000    0.0000 C   0  0
   -1.2990    0.7500    0.0000 C   0  0
   -1.2990   -0.7500    0.0000 C   0  0
   -2.5981   -1.5000    0.0000 N   0  0
   -2.5981   -3.0000    0.0000 C   0  0
   -3.8963   -3.7531    0.0000 N   0  0
   -3.8941   -5.2539    0.0000 C   0  0
   -5.1905   -6.0085    0.0000 C   0  0
   -5.1853   -7.5085    0.0000 C   0  0
   -3.8837   -8.2540    0.0000 C   0  0
   -2.5873   -7.4995    0.0000 C   0  0
   -1.2834   -8.2427    0.0000 N   0  0
    0.0127   -7.4860    0.0000 C   0  0
    0.0049   -5.9860    0.0000 O   0  0
    1.3165   -8.2292    0.0000 C   0  0
    2.6130   -7.4748    0.0000 C   0  0
    3.9147   -8.2202    0.0000 C   0  0
    3.9199   -9.7202    0.0000 C   0  0
    5.2222  -10.4660    0.0000 N   0  0
    6.5199   -9.7136    0.0000 C   0  0
    7.8204  -10.4612    0.0000 C   0  0
    7.8232  -11.9612    0.0000 N   0  0
    9.1237  -12.7087    0.0000 C   0  0
    6.5256  -12.7136    0.0000 C   0  0
    5.2252  -11.9661    0.0000 C   0  0
    2.6235  -10.4747    0.0000 C   0  0
    2.6287  -11.9756    0.0000 C   0  0
    3.9299  -12.7218    0.0000 F   0  0
    1.3321  -12.7297    0.0000 F   0  0
    2.6332  -13.4755    0.0000 F   0  0
    1.3218   -9.7293    0.0000 C   0  0
   -2.5925   -5.9995    0.0000 C   0  0
   -1.2990   -3.7500    0.0000 C   0  0
    0.0000   -3.0000    0.0000 C   0  0
    0.0000   -1.5000    0.0000 C   0  0
  1  2  1  0
  2  3  1  0
  3  4  2  0
  4  5  1  0
  5  6  2  0
  6  7  1  0
  7  8  2  0
  8  9  1  0
  9 10  1  0
 10 11  1  0
 11 12  2  0
 12 13  1  0
 13 14  2  0
 14 15  1  0
 15 16  1  0
 16 17  1  0
 17 18  2  0
 17 19  1  0
 19 20  2  0
 20 21  1  0
 21 22  2  0
 22 23  1  0
 23 24  1  0
 24 25  1  0
 25 26  1  0
 26 27  1  0
 26 28  1  0
 28 29  1  0
 29 23  1  0
 22 30  1  0
 30 31  1  0
 31 32  1  0
 31 33  1  0
 31 34  1  0
 30 35  2  0
 35 19  1  0
 15 36  2  0
 36 11  1  0
  9 37  2  0
 37 38  1  0
 38 39  2  0
 39  3  1  0
 39  7  1  0
M  END
> <Smiles>
COc1cccc2nc(Nc3cccc(NC(=O)c4ccc(N5CCN(C)CC5)c(C(F)(F)F)c4)c3)ccc12

> <ID>
CHEMBL4745330

> <standard_value>
895

> <IC50_uM>
0.895

> <Activity>
Yes

> <pIC50>
6.048176965

> <BCI>
1

$$$$

  SciTegic03012415362D

 31 35  0  0  0  0            999 V2000
    3.8983   -0.7459    0.0000 C   0  0
    2.6003   -1.4977    0.0000 O   0  0
    1.2990   -0.7500    0.0000 C   0  0
    1.2990    0.7500    0.0000 C   0  0
    0.0000    1.5000    0.0000 C   0  0
    0.0000    3.0000    0.0000 C   0  0
   -1.2991    3.7500    0.0000 C   0  0
   -2.5981    3.0000    0.0000 N   0  0
   -3.8994    3.7477    0.0000 C   0  0
   -5.1981    2.9954    0.0000 C   0  0
   -6.4994    3.7432    0.0000 N   0  0
   -7.7973    2.9913    0.0000 C   0  0
   -6.5020    5.2432    0.0000 C   0  0
   -2.5981    1.5000    0.0000 C   0  0
   -3.8971    0.7500    0.0000 O   0  0
   -1.2990    0.7500    0.0000 C   0  0
   -1.2990   -0.7500    0.0000 C   0  0
    0.0000   -1.5000    0.0000 C   0  0
   -0.0031   -3.0008    0.0000 O   0  0
   -1.3032   -3.7490    0.0000 C   0  0
   -0.9876    5.2165    0.0000 C   0  0
   -1.8692    6.4288    0.0000 C   0  0
   -1.2591    7.7991    0.0000 C   0  0
    0.2327    7.9559    0.0000 C   0  0
    1.1144    6.7424    0.0000 C   0  0
    0.5042    5.3733    0.0000 C   0  0
    1.1143    4.0030    0.0000 C   0  0
    2.5815    3.6910    0.0000 O   0  0
    0.5446    9.4223    0.0000 O   0  0
   -0.7544   10.1723    0.0000 C   0  0
   -1.8691    9.1686    0.0000 O   0  0
  1  2  1  0
  2  3  1  0
  3  4  2  0
  4  5  1  0
  5  6  1  0
  6  7  2  0
  7  8  1  0
  8  9  1  0
  9 10  1  0
 10 11  1  0
 11 12  1  0
 11 13  1  0
  8 14  1  0
 14 15  2  0
 14 16  1  0
 16  5  2  0
 16 17  1  0
 17 18  2  0
 18  3  1  0
 18 19  1  0
 19 20  1  0
  7 21  1  0
 21 22  2  0
 22 23  1  0
 23 24  2  0
 24 25  1  0
 25 26  2  0
 26 21  1  0
 26 27  1  0
 27  6  1  0
 27 28  2  0
 24 29  1  0
 29 30  1  0
 30 31  1  0
 31 23  1  0
M  END
> <Smiles>
COc1cc2c3c(n(CCN(C)C)c(=O)c2cc1OC)-c1cc2c(cc1C3=O)OCO2.O=CO

> <ID>
CHEMBL152835

> <standard_value>
900

> <IC50_uM>
0.9

> <Activity>
Yes

> <pIC50>
6.045757491

> <BCI>
1

> <RemovedSalts>
COOH

$$$$

  SciTegic03012415362D

 68 71  0  0  1  0            999 V2000
   18.1995   -1.4701    0.0000 C   0  0
   16.8989   -0.7228    0.0000 C   0  0
   15.6002   -1.4751    0.0000 C   0  0
   14.2989   -0.7273    0.0000 C   0  0
   13.0002   -1.4796    0.0000 C   0  0
   11.6990   -0.7319    0.0000 C   0  0
   10.4003   -1.4841    0.0000 C   0  0
    9.0990   -0.7364    0.0000 C   0  0
    7.8003   -1.4887    0.0000 C   0  0
    6.4990   -0.7409    0.0000 C   0  0
    5.2003   -1.4932    0.0000 C   0  0
    3.8990   -0.7455    0.0000 C   0  0
    2.6003   -1.4977    0.0000 O   0  0
    1.2990   -0.7500    0.0000 C   0  0  2  0  0  0
    1.2990    0.7500    0.0000 O   0  0
    0.0000    1.5000    0.0000 C   0  0  1  0  0  0
    0.0000    3.0000    0.0000 C   0  0
   -1.2990    0.7500    0.0000 C   0  0  2  0  0  0
   -2.5973    1.5031    0.0000 O   0  0
   -2.5951    3.0039    0.0000 C   0  0  2  0  0  0
   -1.2935    3.7495    0.0000 O   0  0
   -1.2883    5.2495    0.0000 C   0  0  1  0  0  0
    0.0133    5.9950    0.0000 C   0  0
   -2.5848    6.0040    0.0000 C   0  0  2  0  0  0
   -2.5765    7.5048    0.0000 O   0  0
   -1.2731    8.2489    0.0000 C   0  0
    0.0220    7.4921    0.0000 C   0  0
   -1.2648    9.7488    0.0000 O   0  0
   -3.8864    5.2585    0.0000 C   0  0  1  0  0  0
   -5.1820    6.0160    0.0000 O   0  0
   -5.1747    7.5168    0.0000 C   0  0  2  0  0  0
   -3.8705    8.2579    0.0000 O   0  0
   -3.8601    9.7579    0.0000 C   0  0  1  0  0  0
   -2.5559   10.4989    0.0000 C   0  0
   -5.1539   10.5169    0.0000 C   0  0  2  0  0  0
   -5.1436   12.0168    0.0000 O   0  0
   -6.4581    9.7758    0.0000 C   0  0  1  0  0  0
   -7.7511   10.5379    0.0000 O   0  0
   -7.7386   12.0387    0.0000 C   0  0  2  0  0  0
   -6.4318   12.7752    0.0000 O   0  0
   -6.4163   14.2752    0.0000 C   0  0  1  0  0  0
   -5.1096   15.0117    0.0000 C   0  0
   -7.7075   15.0386    0.0000 C   0  0  2  0  0  0
   -7.6889   16.5393    0.0000 O   0  0
   -6.3804   17.2743    0.0000 C   0  0
   -5.0905   16.5087    0.0000 C   0  0
   -6.3617   18.7742    0.0000 O   0  0
   -9.0142   14.3021    0.0000 C   0  0  1  0  0  0
  -10.3046   15.0686    0.0000 O   0  0
  -10.2869   16.5693    0.0000 C   0  0
   -8.9789   17.3035    0.0000 C   0  0
  -11.5765   17.3354    0.0000 O   0  0
   -9.0298   12.8022    0.0000 C   0  0  1  0  0  0
  -10.3388   12.0680    0.0000 O   0  0
  -11.6296   12.8337    0.0000 C   0  0
  -11.6114   14.3336    0.0000 C   0  0
  -12.9378   12.0999    0.0000 O   0  0
   -6.4685    8.2759    0.0000 C   0  0  1  0  0  0
   -7.7749    7.5372    0.0000 O   0  0
   -9.0684    8.2984    0.0000 C   0  0
   -9.0553    9.7984    0.0000 C   0  0
  -10.3741    7.5602    0.0000 O   0  0
   -3.8915    3.7585    0.0000 C   0  0  1  0  0  0
   -5.1932    3.0130    0.0000 O   0  0
   -1.2990   -0.7500    0.0000 C   0  0  1  0  0  0
   -2.5981   -1.5000    0.0000 O   0  0
    0.0000   -1.5000    0.0000 C   0  0  1  0  0  0
    0.0000   -3.0000    0.0000 O   0  0
  1  2  1  0
  2  3  1  0
  3  4  1  0
  4  5  1  0
  5  6  1  0
  6  7  1  0
  7  8  1  0
  8  9  1  0
  9 10  1  0
 10 11  1  0
 11 12  1  0
 12 13  1  0
 14 13  1  1
 14 15  1  0
 15 16  1  0
 16 17  1  6
 16 18  1  0
 18 19  1  1
 20 19  1  1
 20 21  1  0
 21 22  1  0
 22 23  1  6
 22 24  1  0
 24 25  1  1
 25 26  1  0
 26 27  1  0
 26 28  2  0
 24 29  1  0
 29 30  1  6
 31 30  1  1
 31 32  1  0
 32 33  1  0
 33 34  1  6
 33 35  1  0
 35 36  1  1
 35 37  1  0
 37 38  1  6
 39 38  1  1
 39 40  1  0
 40 41  1  0
 41 42  1  6
 41 43  1  0
 43 44  1  1
 44 45  1  0
 45 46  1  0
 45 47  2  0
 43 48  1  0
 48 49  1  6
 49 50  1  0
 50 51  1  0
 50 52  2  0
 48 53  1  0
 53 39  1  0
 53 54  1  6
 54 55  1  0
 55 56  1  0
 55 57  2  0
 37 58  1  0
 58 31  1  0
 58 59  1  6
 59 60  1  0
 60 61  1  0
 60 62  2  0
 29 63  1  0
 63 20  1  0
 63 64  1  6
 18 65  1  0
 65 66  1  6
 65 67  1  0
 67 14  1  0
 67 68  1  6
M  END
> <Smiles>
CCCCCCCCCCCCO[C@@H]1O[C@@H](C)[C@H](O[C@@H]2O[C@@H](C)[C@H](OC(C)=O)[C@@H](O[C@@H]3O[C@@H](C)[C@H](O)[C@@H](O[C@@H]4O[C@@H](C)[C@H](OC(C)=O)[C@@H](OC(C)=O)[C@H]4OC(C)=O)[C@H]3OC(C)=O)[C@H]2O)[C@@H](O)
[C@H]1O

> <ID>
CHEMBL2204994

> <standard_value>
910

> <IC50_uM>
0.91

> <Activity>
Yes

> <pIC50>
6.040958608

> <BCI>
1

$$$$

  SciTegic03012415362D

 29 31  0  0  1  0            999 V2000
    5.3192   -0.2597    0.0000 C   0  0
    4.1500    0.6800    0.0000 C   0  0  1  0  0  0
    2.5200    0.3600    0.0000 C   0  0
    2.3100   -1.1700    0.0000 C   0  0
    1.3300   -1.6300    0.0000 C   0  0
    0.1900   -1.1200    0.0000 C   0  0
    0.0000    0.3600    0.0000 C   0  0
   -1.5600    0.8100    0.0000 C   0  0  2  0  0  0
   -3.0100    0.3400    0.0000 C   0  0
   -3.9100    1.5700    0.0000 C   0  0  2  0  0  0
   -5.4100    1.5671    0.0000 O   0  0
   -3.0100    2.8100    0.0000 C   0  0
   -1.5600    2.3300    0.0000 C   0  0  1  0  0  0
    0.0000    2.8600    0.0000 C   0  0  2  0  0  0
    0.7452    2.1932    0.0000 O   0  0
    0.3300    4.3600    0.0000 C   0  0  2  0  0  0
   -0.6480    5.4889    0.0000 S   0  0  3  0  0  0
   -2.1204    5.2024    0.0000 O   0  0
   -0.1602    6.9083    0.0000 C   0  0
   -1.1413    8.0429    0.0000 C   0  0
   -0.6492    9.4599    0.0000 C   0  0
    0.8240    9.7423    0.0000 C   0  0
    1.8051    8.6077    0.0000 C   0  0
    3.2783    8.8900    0.0000 N   0  0
    1.3131    7.1907    0.0000 C   0  0
    2.3100    4.3400    0.0000 C   0  0
    2.6000    2.8000    0.0000 C   0  0
    1.8719    2.1146    0.0000 O   0  0
    4.1100    2.4200    0.0000 O   0  0
  2  1  1  1
  2  3  1  0
  3  4  1  0
  4  5  1  0
  5  6  1  0
  6  7  2  0
  8  7  1  6
  8  9  1  0
  9 10  1  0
 10 11  1  6
 10 12  1  0
 13 12  1  1
 13  8  1  0
 13 14  1  0
 14 15  1  1
 14 16  1  0
 16 17  1  6
 17 18  2  0
 17 19  1  4
 19 20  2  0
 20 21  1  0
 21 22  2  0
 22 23  1  0
 23 24  1  0
 23 25  2  0
 25 19  1  0
 16 26  1  0
 26 27  1  0
 27 28  2  0
 27 29  1  0
 29  2  1  0
M  END
> <Smiles>
C[C@H]1CCC/C=C/[C@@H]2C[C@H](O)C[C@H]2[C@H](O)[C@H]([S+]([O-])c2cccc(N)c2)CC(=O)O1

> <ID>
CHEMBL129810

> <standard_value>
930

> <IC50_uM>
0.93

> <Activity>
Yes

> <pIC50>
6.031517051

> <BCI>
1

$$$$

  SciTegic03012415362D

 21 22  0  0  0  0            999 V2000
    5.1937   -3.0093    0.0000 C   0  0
    3.8933   -3.7570    0.0000 C   0  0  3  0  0  0
    2.5951   -3.0039    0.0000 C   0  0
    2.5973   -1.5031    0.0000 C   0  0
    1.2990   -0.7500    0.0000 C   0  0
    1.2990    0.7500    0.0000 C   0  0
    0.0000    1.5000    0.0000 C   0  0
   -1.2990    0.7500    0.0000 C   0  0
   -1.2990   -0.7500    0.0000 C   0  0
    0.0000   -1.5000    0.0000 C   0  0
    3.8912   -5.2578    0.0000 N   0  0
    5.1017   -6.1219    0.0000 C   0  0
    4.6332   -7.5468    0.0000 C   0  0
    5.5071   -8.7638    0.0000 C   0  0
    4.8900  -10.1319    0.0000 C   0  0
    5.7654  -11.3509    0.0000 C   0  0
    7.2579  -11.2019    0.0000 O   0  0
    5.1482  -12.7190    0.0000 N   0  0
    6.0231  -13.9374    0.0000 O   0  0
    3.1332   -7.5416    0.0000 N   0  0
    2.6747   -6.1134    0.0000 N   0  0
  2  1  1  4
  2  3  1  0
  3  4  2  0
  4  5  1  0
  5  6  2  0
  6  7  1  0
  7  8  2  0
  8  9  1  0
  9 10  2  0
 10  5  1  0
  2 11  1  0
 11 12  1  0
 12 13  2  0
 13 14  1  0
 14 15  2  0
 15 16  1  0
 16 17  2  0
 16 18  1  0
 18 19  1  0
 13 20  1  0
 20 21  2  0
 21 11  1  0
M  END
> <Smiles>
CC(/C=C/c1ccccc1)n1cc(/C=C/C(=O)NO)nn1

> <ID>
CHEMBL1807693

> <standard_value>
934

> <IC50_uM>
0.934

> <Activity>
Yes

> <pIC50>
6.029653124

> <BCI>
1

$$$$

  SciTegic03012415362D

 24 24  0  0  0  0            999 V2000
    3.1539  -24.3053    0.0000 C   0  0
    3.7660  -22.9359    0.0000 C   0  0
    2.8863  -21.7199    0.0000 C   0  0
    3.4987  -20.3497    0.0000 C   0  0
    2.6191  -19.1337    0.0000 C   0  0
    3.2315  -17.7635    0.0000 C   0  0
    2.3519  -16.5475    0.0000 C   0  0
    2.9643  -15.1773    0.0000 C   0  0
    2.0846  -13.9613    0.0000 C   0  0
    2.6971  -12.5911    0.0000 C   0  0
    1.8174  -11.3750    0.0000 C   0  0
    2.4298  -10.0049    0.0000 C   0  0
    1.5502   -8.7888    0.0000 C   0  0
    2.1626   -7.4186    0.0000 C   0  0
    1.2830   -6.2026    0.0000 C   0  0
    1.8954   -4.8324    0.0000 C   0  0
    1.0157   -3.6164    0.0000 C   0  0
    1.6281   -2.2462    0.0000 C   0  0
    0.7500   -1.0323    0.0000 N   0  3
    1.2135    0.3943    0.0000 C   0  0
    0.0000    1.2760    0.0000 C   0  0
   -1.2135    0.3943    0.0000 N   0  0
   -2.6401    0.8578    0.0000 C   0  0
   -0.7500   -1.0323    0.0000 C   0  0
  1  2  1  0
  2  3  1  0
  3  4  1  0
  4  5  1  0
  5  6  1  0
  6  7  1  0
  7  8  1  0
  8  9  1  0
  9 10  1  0
 10 11  1  0
 11 12  1  0
 12 13  1  0
 13 14  1  0
 14 15  1  0
 15 16  1  0
 16 17  1  0
 17 18  1  0
 18 19  1  0
 19 20  1  0
 20 21  2  0
 21 22  1  0
 22 23  1  0
 22 24  1  0
 24 19  2  0
M  CHG  1  19   1
M  END
> <Smiles>
CCCCCCCCCCCCCCCCCC[n+]1ccn(C)c1.O=S(=O)([N-]S(=O)(=O)C(F)(F)F)C(F)(F)F

> <ID>
CHEMBL595010

> <standard_value>
937

> <IC50_uM>
0.937

> <Activity>
Yes

> <pIC50>
6.028260409

> <BCI>
1

$$$$

  SciTegic03012415362D

 28 30  0  0  0  0            999 V2000
   -6.7902  -14.7383    0.0000 O   0  0
   -7.2510  -13.3108    0.0000 C   0  0
   -6.2443  -12.1977    0.0000 C   0  0
   -4.7767  -12.5121    0.0000 C   0  0
   -3.7700  -11.3990    0.0000 C   0  0
   -2.3028  -11.7111    0.0000 C   0  0
   -1.2990  -10.5965    0.0000 C   0  0
   -1.7622   -9.1698    0.0000 C   0  0
   -0.7600   -8.0526    0.0000 C   0  0
   -1.2256   -6.6258    0.0000 N   0  0
   -2.6935   -6.3130    0.0000 C   0  0
   -3.1574   -4.8857    0.0000 C   0  0
   -4.6245   -4.5731    0.0000 O   0  0
   -0.2234   -5.5086    0.0000 C   0  0
   -0.6890   -4.0818    0.0000 C   0  0
    0.3114   -2.9665    0.0000 C   0  0
    1.8032   -3.1233    0.0000 C   0  0
    2.4133   -1.7530    0.0000 N   0  0
    1.2990   -0.7500    0.0000 C   0  0
    1.2990    0.7500    0.0000 C   0  0
    0.0000    1.5000    0.0000 C   0  0
   -1.2990    0.7500    0.0000 C   0  0
   -1.2990   -0.7500    0.0000 C   0  0
    0.0000   -1.5000    0.0000 C   0  0
   -3.2294   -8.8578    0.0000 C   0  0
   -4.2333   -9.9723    0.0000 C   0  0
   -8.7185  -12.9965    0.0000 N   0  0
   -9.7247  -14.1090    0.0000 O   0  0
  1  2  2  0
  2  3  1  0
  3  4  2  0
  4  5  1  0
  5  6  2  0
  6  7  1  0
  7  8  2  0
  8  9  1  0
  9 10  1  0
 10 11  1  0
 11 12  1  0
 12 13  1  0
 10 14  1  0
 14 15  1  0
 15 16  1  0
 16 17  2  0
 17 18  1  0
 18 19  1  0
 19 20  2  0
 20 21  1  0
 21 22  2  0
 22 23  1  0
 23 24  2  0
 24 16  1  0
 24 19  1  0
  8 25  1  0
 25 26  2  0
 26  5  1  0
  2 27  1  0
 27 28  1  0
M  END
> <Smiles>
O=C(/C=C/c1ccc(CN(CCO)CCc2c[nH]c3ccccc23)cc1)NO

> <ID>
CHEMBL356066

> <standard_value>
965

> <IC50_uM>
0.965

> <Activity>
Yes

> <pIC50>
6.015472687

> <BCI>
1

$$$$

  SciTegic03012415362D

 38 42  0  0  0  0            999 V2000
    3.8983   -0.7459    0.0000 C   0  0
    2.6003   -1.4977    0.0000 O   0  0
    1.2990   -0.7500    0.0000 C   0  0
    1.2990    0.7500    0.0000 C   0  0
    0.0000    1.5000    0.0000 C   0  0
    0.0000    3.0008    0.0000 C   0  0
   -1.2149    3.8587    0.0000 N   0  0
   -0.7536    5.2860    0.0000 N   0  0
   -1.6377    6.4987    0.0000 C   0  0
   -3.1320    6.4515    0.0000 C   0  0
   -3.9219    7.7267    0.0000 C   0  0
   -3.2125    9.0483    0.0000 C   0  0
   -1.7132    9.0948    0.0000 C   0  0
   -1.0007   10.4157    0.0000 N   0  0
    0.4995   10.4601    0.0000 C   0  0
    1.2871    9.1836    0.0000 O   0  0
    1.2120   11.7810    0.0000 N   0  0
    2.7121   11.8254    0.0000 C   0  0
    3.4262   13.1446    0.0000 C   0  0
    4.9256   13.1859    0.0000 C   0  0
    5.7111   11.9080    0.0000 C   0  0
    7.2105   11.9493    0.0000 Cl  0  0
    4.9971   10.5888    0.0000 C   0  0
    5.7826    9.3109    0.0000 Cl  0  0
    3.4977   10.5475    0.0000 C   0  0
   -0.9233    7.8196    0.0000 C   0  0
    0.7463    5.2884    0.0000 C   0  0
    1.2121    3.8625    0.0000 C   0  0
    2.6374    3.3926    0.0000 C   0  0
    3.0562    1.9577    0.0000 C   0  0
    4.5135    1.6025    0.0000 C   0  0
    5.5498    2.6871    0.0000 N   0  0
    5.1286    4.1268    0.0000 C   0  0
    3.6713    4.4819    0.0000 C   0  0
   -1.2990    0.7500    0.0000 C   0  0
   -1.2990   -0.7500    0.0000 C   0  0
    0.0000   -1.5000    0.0000 C   0  0
    0.0000   -3.0000    0.0000 Cl  0  0
  1  2  1  0
  2  3  1  0
  3  4  2  0
  4  5  1  0
  5  6  1  0
  6  7  2  0
  7  8  1  0
  8  9  1  0
  9 10  2  0
 10 11  1  0
 11 12  2  0
 12 13  1  0
 13 14  1  0
 14 15  1  0
 15 16  2  0
 15 17  1  0
 17 18  1  0
 18 19  2  0
 19 20  1  0
 20 21  2  0
 21 22  1  0
 21 23  1  0
 23 24  1  0
 23 25  2  0
 25 18  1  0
 13 26  2  0
 26  9  1  0
  8 27  1  0
 27 28  2  0
 28  6  1  0
 28 29  1  0
 29 30  2  0
 30 31  1  0
 31 32  2  0
 32 33  1  0
 33 34  2  0
 34 29  1  0
  5 35  2  0
 35 36  1  0
 36 37  2  0
 37  3  1  0
 37 38  1  0
M  END
> <Smiles>
COc1cc(-c2nn(-c3cccc(NC(=O)Nc4ccc(Cl)c(Cl)c4)c3)cc2-c2ccncc2)ccc1Cl

> <ID>
CHEMBL2441788

> <standard_value>
965

> <IC50_uM>
0.965

> <Activity>
Yes

> <pIC50>
6.015472687

> <BCI>
1

$$$$

  SciTegic03012415362D

 41 45  0  0  0  0            999 V2000
    9.0829   -8.2795    0.0000 C   0  0
    7.7876   -7.5231    0.0000 O   0  0
    6.4837   -8.2663    0.0000 C   0  0
    6.4785   -9.7663    0.0000 C   0  0
    5.1769  -10.5118    0.0000 C   0  0
    3.8804   -9.7573    0.0000 C   0  0
    3.8856   -8.2573    0.0000 C   0  0
    5.1873   -7.5117    0.0000 C   0  0
    5.1894   -6.0109    0.0000 C   0  0
    3.8912   -5.2578    0.0000 N   0  0
    3.8933   -3.7570    0.0000 C   0  0
    2.5951   -3.0039    0.0000 C   0  0
    2.5973   -1.5031    0.0000 C   0  0
    1.2990   -0.7500    0.0000 N   0  0
    1.2990    0.7500    0.0000 C   0  0
    2.5981    1.5000    0.0000 O   0  0
    0.0000    1.5000    0.0000 C   0  0
    0.0000    3.0000    0.0000 C   0  0
   -1.2991    3.7500    0.0000 C   0  0
   -2.5981    3.0000    0.0000 C   0  0
   -2.5981    1.5000    0.0000 C   0  0
   -3.8971    0.7500    0.0000 C   0  0
   -3.8971   -0.7500    0.0000 C   0  0
   -2.5981   -1.5000    0.0000 C   0  0
   -1.2990   -0.7500    0.0000 C   0  0
   -1.2990    0.7500    0.0000 C   0  0
    0.0000   -1.5000    0.0000 C   0  0
    0.0000   -3.0000    0.0000 O   0  0
   -5.1962    1.5000    0.0000 C   0  0
   -6.4952    0.7500    0.0000 O   0  0
   -5.1962    3.0000    0.0000 N   0  0
   -6.4944    3.7531    0.0000 C   0  0
   -6.4923    5.2539    0.0000 C   0  0
   -7.7905    6.0070    0.0000 C   0  0
   -7.7883    7.5078    0.0000 N   0  0
   -9.0866    8.2609    0.0000 C   0  0
   -9.0844    9.7617    0.0000 C   0  0
  -10.3826   10.5148    0.0000 C   0  0
  -10.3805   12.0148    0.0000 N   0  0
   -3.8971    3.7500    0.0000 C   0  0
   -3.8971    5.2500    0.0000 O   0  0
  1  2  1  0
  2  3  1  0
  3  4  2  0
  4  5  1  0
  5  6  2  0
  6  7  1  0
  7  8  2  0
  8  3  1  0
  8  9  1  0
  9 10  1  0
 10 11  1  0
 11 12  1  0
 12 13  1  0
 13 14  1  0
 14 15  1  0
 15 16  2  0
 15 17  1  0
 17 18  2  0
 18 19  1  0
 19 20  2  0
 20 21  1  0
 21 22  2  0
 22 23  1  0
 23 24  2  0
 24 25  1  0
 25 26  2  0
 26 17  1  0
 26 21  1  0
 25 27  1  0
 27 14  1  0
 27 28  2  0
 22 29  1  0
 29 30  2  0
 29 31  1  0
 31 32  1  0
 32 33  1  0
 33 34  1  0
 34 35  1  0
 35 36  1  0
 36 37  1  0
 37 38  1  0
 38 39  1  0
 31 40  1  0
 40 20  1  0
 40 41  2  0
M  END
> <Smiles>
COc1ccccc1CNCCCN1C(=O)c2ccc3c4c(ccc(c24)C1=O)C(=O)N(CCCNCCCN)C3=O

> <ID>
CHEMBL4084089

> <standard_value>
968

> <IC50_uM>
0.968

> <Activity>
Yes

> <pIC50>
6.014124643

> <BCI>
1

$$$$

  SciTegic03012415362D

 31 35  0  0  1  0            999 V2000
    3.8926   -3.7566    0.0000 C   0  0
    2.5951   -3.0039    0.0000 C   0  0
    2.5973   -1.5031    0.0000 O   0  0
    1.2990   -0.7500    0.0000 C   0  0  1  0  0  0
    1.2990    0.7500    0.0000 C   0  0
    0.0000    1.5000    0.0000 C   0  0
    0.0000    3.0000    0.0000 C   0  0
   -1.2991    3.7500    0.0000 C   0  0
   -2.5981    3.0000    0.0000 C   0  0  2  0  0  0
   -2.5981    1.5000    0.0000 C   0  0  2  0  0  0
   -3.8971    0.7500    0.0000 C   0  0  1  0  0  0
   -3.8971   -0.7500    0.0000 O   0  0
   -5.1962    1.5000    0.0000 C   0  0
   -5.1962    3.0000    0.0000 C   0  0  2  0  0  0
   -6.5658    2.3882    0.0000 C   0  0
   -6.3051    3.9936    0.0000 C   0  0  1  0  0  0
   -7.7727    3.6798    0.0000 C   0  0
   -8.3390    2.2963    0.0000 C   0  0
   -9.8255    2.0951    0.0000 C   0  0
  -10.7429    3.2819    0.0000 C   0  0
  -12.2293    3.0808    0.0000 O   0  0
  -10.1738    4.6698    0.0000 O   0  0
   -8.6873    4.8709    0.0000 C   0  0
   -5.6950    5.3639    0.0000 C   0  0
   -4.2032    5.2072    0.0000 C   0  0
   -3.8971    3.7500    0.0000 C   0  0  2  0  0  0
   -2.6826    4.6302    0.0000 O   0  0
   -1.2990    0.7500    0.0000 C   0  0  2  0  0  0
   -2.5981    0.0000    0.0000 C   0  0
   -1.2990   -0.7500    0.0000 C   0  0
    0.0000   -1.5000    0.0000 C   0  0
  1  2  1  0
  2  3  1  0
  4  3  1  6
  4  5  1  0
  5  6  2  0
  6  7  1  0
  7  8  1  0
  9  8  1  6
 10  9  1  1
 10 11  1  0
 11 12  1  1
 11 13  1  0
 13 14  1  0
 14 15  1  1
 14 16  1  0
 16 17  1  1
 17 18  1  0
 18 19  2  0
 19 20  1  0
 20 21  2  0
 20 22  1  0
 22 23  1  0
 23 17  2  0
 16 24  1  0
 24 25  1  0
 25 26  1  0
 26  9  1  0
 26 14  1  0
 26 27  1  1
 10 28  1  0
 28  6  1  0
 28 29  1  1
 28 30  1  0
 30 31  1  0
 31  4  1  0
M  END
> <Smiles>
CCO[C@H]1C=C2CC[C@@H]3[C@H]([C@@H](O)C[C@]4(C)[C@@H](c5ccc(=O)oc5)CC[C@]34O)[C@@]2(C)CC1

> <ID>
CHEMBL4855223

> <standard_value>
968

> <IC50_uM>
0.968

> <Activity>
Yes

> <pIC50>
6.014124643

> <BCI>
1

$$$$

  SciTegic03012415362D

 65 68  0  0  1  0            999 V2000
   -6.3526   -0.4242    0.0000 C   0  0
   -5.1674   -1.3437    0.0000 O   0  0
   -5.3700   -2.8300    0.0000 C   0  0  1  0  0  0
   -6.8600   -3.4400    0.0000 C   0  0
   -7.8600   -2.2400    0.0000 C   0  0  2  0  0  0
   -9.2500   -2.5000    0.0000 C   0  0
  -10.1800   -1.4400    0.0000 C   0  0
   -9.7100    0.0100    0.0000 C   0  0  1  0  0  0
  -10.7377    1.1027    0.0000 C   0  0
   -8.0800    0.4300    0.0000 C   0  0  1  0  0  0
   -8.4778    1.8763    0.0000 O   0  0
   -7.2300   -0.9300    0.0000 O   0  0
   -6.6100    0.8600    0.0000 C   0  0
   -5.5855   -0.2356    0.0000 O   0  0
   -6.1000    2.2500    0.0000 C   0  0
   -7.0129    3.4402    0.0000 O   0  0
   -4.5400    2.3900    0.0000 N   0  0
   -5.4800    3.8300    0.0000 C   0  0
   -4.8400    5.2900    0.0000 C   0  0
   -3.4600    5.5000    0.0000 C   0  0
   -2.6400    4.4900    0.0000 C   0  0
   -3.1200    3.1200    0.0000 C   0  0  1  0  0  0
   -1.9000    2.2900    0.0000 C   0  0
   -1.8545    0.7907    0.0000 O   0  0
   -0.7100    3.2100    0.0000 O   0  0
    0.6400    2.7300    0.0000 C   0  0  2  0  0  0
    1.7942    3.6872    0.0000 C   0  0  2  0  0  0
    3.2010    3.1666    0.0000 C   0  0
    1.5420    5.1667    0.0000 C   0  0
    2.6966    6.1256    0.0000 C   0  0  2  0  0  0
    2.4467    7.6047    0.0000 C   0  0
    3.6025    8.5607    0.0000 C   0  0
    5.0084    8.0377    0.0000 C   0  0  1  0  0  0
    6.1643    8.9937    0.0000 O   0  0
    5.2584    6.5586    0.0000 C   0  0  2  0  0  0
    6.6661    6.0382    0.0000 O   0  0
    7.8206    6.9959    0.0000 C   0  0
    4.1025    5.6026    0.0000 C   0  0
    0.8000    1.1200    0.0000 C   0  0
    2.0600    0.3500    0.0000 C   0  0
    1.8870   -1.1400    0.0000 O   0  0
    3.4300    0.8000    0.0000 C   0  0  2  0  0  0
    3.8662    2.2352    0.0000 C   0  0
    4.3600   -0.3900    0.0000 C   0  0
    5.8000   -0.4000    0.0000 C   0  0
    6.6151    0.8592    0.0000 C   0  0
    6.4400   -1.8000    0.0000 C   0  0  1  0  0  0
    7.9345   -1.9281    0.0000 O   0  0
    5.5100   -3.1600    0.0000 C   0  0  1  0  0  0
    4.0182   -3.2790    0.0000 O   0  0
    3.1659   -2.0447    0.0000 C   0  0
    6.5100   -4.2800    0.0000 C   0  0
    7.9504   -3.8613    0.0000 O   0  0
    6.2500   -5.8600    0.0000 C   0  0  2  0  0  0
    7.5042   -6.6827    0.0000 C   0  0
    4.8700   -6.7500    0.0000 C   0  0
    3.3400   -6.2300    0.0000 C   0  0  2  0  0  0
    2.3025   -7.3134    0.0000 C   0  0
    2.7800   -4.7900    0.0000 C   0  0
    1.1200   -4.8600    0.0000 C   0  0
    0.1200   -3.6900    0.0000 C   0  0
   -1.4100   -4.1500    0.0000 C   0  0
   -2.6300   -3.1700    0.0000 C   0  0
   -4.1200   -3.7800    0.0000 C   0  0
   -4.3154   -5.2672    0.0000 C   0  0
  1  2  1  0
  3  2  1  6
  3  4  1  0
  5  4  1  6
  5  6  1  0
  6  7  1  0
  7  8  1  0
  8  9  1  1
  8 10  1  0
 10 11  1  1
 10 12  1  0
 12  5  1  0
 10 13  1  0
 13 14  2  0
 13 15  1  0
 15 16  2  0
 15 17  1  0
 17 18  1  0
 18 19  1  0
 19 20  1  0
 20 21  1  0
 22 21  1  1
 22 17  1  0
 22 23  1  0
 23 24  2  0
 23 25  1  0
 26 25  1  6
 26 27  1  0
 27 28  1  1
 27 29  1  0
 30 29  1  6
 30 31  1  0
 31 32  1  0
 32 33  1  0
 33 34  1  1
 33 35  1  0
 35 36  1  6
 36 37  1  0
 35 38  1  0
 38 30  1  0
 26 39  1  0
 39 40  1  0
 40 41  2  0
 40 42  1  0
 42 43  1  6
 42 44  1  0
 44 45  2  0
 45 46  1  0
 45 47  1  0
 47 48  1  1
 47 49  1  0
 49 50  1  6
 50 51  1  0
 49 52  1  0
 52 53  2  0
 52 54  1  0
 54 55  1  6
 54 56  1  0
 56 57  1  0
 57 58  1  6
 57 59  1  0
 59 60  2  0
 60 61  1  0
 61 62  2  0
 62 63  1  0
 63 64  2  0
 64  3  1  0
 64 65  1  0
M  END
> <Smiles>
CO[C@H]1C[C@@H]2CC[C@@H](C)[C@@](O)(O2)C(=O)C(=O)N2CCCC[C@H]2C(=O)O[C@H]([C@H](C)C[C@@H]2CC[C@@H](O)[C@H](OC)C2)CC(=O)[C@H](C)/C=C(\C)[C@@H](O)[C@@H](OC)C(=O)[C@H](C)C[C@H](C)/C=C/C=C/C=C/1C

> <ID>
CHEMBL413

> <standard_value>
0.0116

> <IC50_uM>
1.16E-05

> <Activity>
Yes

> <pIC50>
10.93554201

> <BCI>
1

$$$$

  SciTegic03012415362D

 58 63  0  0  1  0            999 V2000
    2.2495    2.6548    0.0000 C   0  0
    3.6576    2.1380    0.0000 C   0  0
    4.8089    3.0995    0.0000 O   0  0
    3.9139    0.6592    0.0000 O   0  0
    2.7600   -0.3100    0.0000 C   0  0  1  0  0  0
    3.4900    0.9500    0.0000 C   0  0
    4.7600    0.2300    0.0000 O   0  0
    4.0400   -1.0400    0.0000 C   0  0  2  0  0  0
    4.0400   -2.4900    0.0000 C   0  0
    2.7600   -3.2200    0.0000 C   0  0  2  0  0  0
    2.7575   -4.7200    0.0000 O   0  0
    1.4900   -2.4900    0.0000 C   0  0  1  0  0  0
    1.4875   -3.9900    0.0000 C   0  0
    0.2100   -3.2200    0.0000 C   0  0
    0.2075   -4.7200    0.0000 O   0  0
   -1.0600   -2.4900    0.0000 C   0  0  2  0  0  0
   -1.0600   -1.4900    0.0000 O   0  0
   -2.3300   -3.2200    0.0000 C   0  0
   -3.6100   -2.4900    0.0000 C   0  0
   -4.9070   -3.2434    0.0000 C   0  0
   -3.6100   -1.0400    0.0000 C   0  0  1  0  0  0
   -4.9128   -0.2943    0.0000 O   0  0
   -6.2102   -1.0489    0.0000 C   0  0
   -6.2067   -2.0488    0.0000 O   0  0
   -7.5128   -0.3034    0.0000 C   0  0  2  0  0  0
   -7.5181    1.1966    0.0000 O   0  0
   -8.8101   -1.0580    0.0000 C   0  0  1  0  0  0
   -8.8018   -2.5588    0.0000 N   0  0
   -7.4983   -3.3028    0.0000 C   0  0
   -6.6350   -2.7982    0.0000 O   0  0
   -7.4900   -4.8036    0.0000 O   0  0
   -6.1865   -5.5476    0.0000 C   0  0
   -6.1782   -7.0475    0.0000 C   0  0
   -4.8915   -4.7908    0.0000 C   0  0
   -4.8835   -6.2905    0.0000 C   0  0
  -10.1128   -0.3126    0.0000 C   0  0
  -11.4105   -1.0648    0.0000 C   0  0
  -12.7109   -0.3172    0.0000 C   0  0
  -12.7136    1.1828    0.0000 C   0  0
  -11.4159    1.9352    0.0000 C   0  0
  -10.1155    1.1875    0.0000 C   0  0
   -2.3300   -0.3100    0.0000 C   0  0
   -1.0600   -1.0400    0.0000 C   0  0  1  0  0  0
   -1.0600    0.4600    0.0000 O   0  0
    0.2100   -0.3100    0.0000 C   0  0  1  0  0  0
    0.2020    1.1912    0.0000 O   0  0
   -1.1014    1.9354    0.0000 C   0  0
   -2.3966    1.1788    0.0000 O   0  0
   -1.1094    3.4362    0.0000 C   0  0
   -2.4110    4.1820    0.0000 C   0  0
   -2.4160    5.6819    0.0000 C   0  0
   -1.1195    6.4363    0.0000 C   0  0
    0.1820    5.6907    0.0000 C   0  0
    0.1871    4.1907    0.0000 C   0  0
    1.4900   -1.0400    0.0000 C   0  0  2  0  0  0
   -2.0200    0.2800    0.0000 C   0  0
   -0.9882    1.3687    0.0000 C   0  0
   -3.4648    0.6831    0.0000 C   0  0
  1  2  1  0
  2  3  2  0
  2  4  1  0
  5  4  1  1
  5  6  1  0
  6  7  1  0
  8  7  1  6
  8  5  1  0
  8  9  1  0
  9 10  1  0
 10 11  1  6
 10 12  1  0
 12 13  1  6
 12 14  1  0
 14 15  2  0
 14 16  1  0
 16 17  1  1
 16 18  1  0
 18 19  2  0
 19 20  1  0
 19 21  1  0
 21 22  1  1
 22 23  1  0
 23 24  2  0
 23 25  1  0
 25 26  1  1
 25 27  1  0
 27 28  1  1
 28 29  1  0
 29 30  2  0
 29 31  1  0
 31 32  1  0
 32 33  1  0
 32 34  1  0
 32 35  1  0
 27 36  1  0
 36 37  2  0
 37 38  1  0
 38 39  2  0
 39 40  1  0
 40 41  2  0
 41 36  1  0
 21 42  1  0
 42 43  1  0
 43 44  1  1
 43 45  1  0
 45 46  1  1
 46 47  1  0
 47 48  2  0
 47 49  1  0
 49 50  2  0
 50 51  1  0
 51 52  2  0
 52 53  1  0
 53 54  2  0
 54 49  1  0
 55 45  1  6
 55  5  1  0
 55 12  1  0
 43 56  1  0
 56 18  1  0
 56 57  1  0
 56 58  1  0
M  END
> <Smiles>
CC(=O)O[C@@]12CO[C@@H]1C[C@H](O)[C@@]1(C)C(=O)[C@H](O)C3=C(C)[C@@H](OC(=O)[C@H](O)[C@@H](NC(=O)OC(C)(C)C)c4ccccc4)C[C@@](O)([C@@H](OC(=O)c4ccccc4)[C@H]21)C3(C)C.O.O.O

> <ID>
CHEMBL3545252

> <standard_value>
0.302

> <IC50_uM>
0.000302

> <Activity>
Yes

> <pIC50>
9.519993057

> <BCI>
1

> <RemovedSalts>
H2O
H2O
H2O

$$$$

  SciTegic03012415362D

 42 46  0  0  0  0            999 V2000
    3.8983   -0.7459    0.0000 C   0  0
    2.6003   -1.4977    0.0000 O   0  0
    1.2990   -0.7500    0.0000 C   0  0
    1.2990    0.7500    0.0000 C   0  0
    0.0000    1.5000    0.0000 C   0  0
    0.0000    3.0008    0.0000 N   0  0
    1.2978    3.7529    0.0000 C   0  0
    1.2954    5.2529    0.0000 C   0  0
   -0.0048    6.0009    0.0000 C   0  0
   -0.0072    7.5016    0.0000 N   0  0
    1.2895    8.2559    0.0000 C   0  0
    1.2847    9.7558    0.0000 C   0  0
   -0.0167   10.5017    0.0000 N   0  0
   -0.0215   12.0017    0.0000 C   0  0
   -1.3134    9.7476    0.0000 C   0  0
   -1.3086    8.2476    0.0000 C   0  0
   -1.3026    5.2488    0.0000 C   0  0
   -1.3002    3.7488    0.0000 C   0  0
   -1.2990    0.7500    0.0000 C   0  0
   -1.2990   -0.7500    0.0000 C   0  0
    0.0000   -1.5000    0.0000 C   0  0
   -0.0031   -3.0008    0.0000 N   0  0
   -1.3039   -3.7494    0.0000 C   0  0
   -1.3092   -5.2494    0.0000 N   0  0
   -2.6108   -5.9949    0.0000 C   0  0
   -3.9072   -5.2404    0.0000 C   0  0
   -5.2089   -5.9859    0.0000 Cl  0  0
   -3.9020   -3.7404    0.0000 C   0  0
   -5.1977   -2.9829    0.0000 N   0  0
   -5.1903   -1.4821    0.0000 C   0  0
   -3.8861   -0.7410    0.0000 C   0  0
   -3.8758    0.7590    0.0000 C   0  0
   -5.1696    1.5179    0.0000 C   0  0
   -6.4738    0.7769    0.0000 C   0  0
   -6.4841   -0.7230    0.0000 C   0  0
   -7.7891   -1.4644    0.0000 S   0  0
   -7.7990   -2.9644    0.0000 O   0  0
   -9.0929   -2.2060    0.0000 O   0  0
   -9.0841   -0.7058    0.0000 C   0  0
  -10.3883   -1.4467    0.0000 C   0  0
   -9.0741    0.7942    0.0000 C   0  0
   -2.6004   -2.9949    0.0000 N   0  0
  1  2  1  0
  2  3  1  0
  3  4  2  0
  4  5  1  0
  5  6  1  0
  6  7  1  0
  7  8  1  0
  8  9  1  0
  9 10  1  0
 10 11  1  0
 11 12  1  0
 12 13  1  0
 13 14  1  0
 13 15  1  0
 15 16  1  0
 16 10  1  0
  9 17  1  0
 17 18  1  0
 18  6  1  0
  5 19  2  0
 19 20  1  0
 20 21  2  0
 21  3  1  0
 21 22  1  0
 22 23  1  0
 23 24  2  0
 24 25  1  0
 25 26  2  0
 26 27  1  0
 26 28  1  0
 28 29  1  0
 29 30  1  0
 30 31  2  0
 31 32  1  0
 32 33  2  0
 33 34  1  0
 34 35  2  0
 35 30  1  0
 35 36  1  0
 36 37  2  0
 36 38  2  0
 36 39  1  0
 39 40  1  0
 39 41  1  0
 28 42  2  0
 42 23  1  0
M  END
> <Smiles>
COc1cc(N2CCC(N3CCN(C)CC3)CC2)ccc1Nc1ncc(Cl)c(Nc2ccccc2S(=O)(=O)C(C)C)n1

> <ID>
CHEMBL509032

> <standard_value>
0.5643

> <IC50_uM>
0.0005643

> <Activity>
Yes

> <pIC50>
9.24848995

> <BCI>
1

$$$$

  SciTegic03012415362D

 18 19  0  0  1  0            999 V2000
    2.5981   -1.5000    0.0000 N   0  0
    1.2990   -0.7500    0.0000 C   0  0
    1.2990    0.7500    0.0000 C   0  0
    0.0000    1.5000    0.0000 C   0  0
   -1.2990    0.7500    0.0000 N   0  0
   -2.5987    1.5004    0.0000 C   0  0  2  0  0  0
   -3.9492    0.8772    0.0000 O   0  0
   -4.9546    1.9903    0.0000 C   0  0  2  0  0  0
   -6.4441    1.8282    0.0000 C   0  0
   -7.0500    0.4561    0.0000 O   0  0
   -4.2067    3.2905    0.0000 C   0  0  1  0  0  0
   -4.8190    4.6599    0.0000 O   0  0
   -2.7390    2.9810    0.0000 C   0  0
   -1.3214    2.4906    0.0000 F   0  0
   -3.0655    4.4450    0.0000 F   0  0
   -1.2990   -0.7500    0.0000 C   0  0
   -2.5981   -1.5000    0.0000 O   0  0
    0.0000   -1.5000    0.0000 N   0  0
  1  2  1  0
  2  3  1  0
  3  4  2  0
  4  5  1  0
  6  5  1  6
  6  7  1  0
  7  8  1  0
  8  9  1  6
  9 10  1  0
  8 11  1  0
 11 12  1  1
 11 13  1  0
 13  6  1  0
 13 14  1  0
 13 15  1  0
  5 16  1  0
 16 17  2  0
 16 18  1  0
 18  2  2  0
M  END
> <Smiles>
Nc1ccn([C@@H]2O[C@H](CO)[C@@H](O)C2(F)F)c(=O)n1

> <ID>
CHEMBL888

> <standard_value>
1.023

> <IC50_uM>
0.001023

> <Activity>
Yes

> <pIC50>
8.990124366

> <BCI>
1

$$$$

  SciTegic03012415362D

 43 49  0  0  0  0            999 V2000
   18.5541    2.8421    0.0000 C   0  0
   19.5561    1.7258    0.0000 C   0  0
   21.0237    2.0358    0.0000 O   0  0
   19.0896    0.2993    0.0000 N   0  0
   17.6212   -0.0109    0.0000 C   0  0
   17.1530   -1.4360    0.0000 C   0  0
   15.6847   -1.7430    0.0000 C   0  0
   14.6847   -0.6250    0.0000 C   0  0
   13.1855   -0.6203    0.0000 N   0  0
   12.7475    0.8010    0.0000 C   0  0
   11.3226    1.2724    0.0000 C   0  0
   10.2028    0.2743    0.0000 O   0  0
   11.0175    2.7419    0.0000 N   0  0
    9.5926    3.2133    0.0000 C   0  0
    9.2856    4.6816    0.0000 C   0  0
    7.8605    5.1498    0.0000 C   0  0
    6.7425    4.1497    0.0000 C   0  0
    5.2521    4.3116    0.0000 N   0  0
    4.6588    2.9478    0.0000 C   0  0
    3.1904    2.6376    0.0000 C   0  0
    2.1885    3.7539    0.0000 O   0  0
    2.7248    1.2135    0.0000 N   0  0
    3.6065    0.0000    0.0000 C   0  0
    2.7248   -1.2135    0.0000 C   0  0  3  0  0  0
    3.1905   -2.6376    0.0000 C   0  0
    4.6581   -2.9476    0.0000 Cl  0  0
    1.2990   -0.7500    0.0000 C   0  0
    1.2990    0.7500    0.0000 C   0  0
    0.0000    1.5000    0.0000 C   0  0
   -1.2990    0.7500    0.0000 C   0  0
   -2.5981    1.5000    0.0000 O   0  0
   -1.2990   -0.7500    0.0000 C   0  0
   -2.5981   -1.5000    0.0000 C   0  0
   -2.5981   -3.0000    0.0000 C   0  0
   -1.2990   -3.7500    0.0000 C   0  0
    0.0000   -3.0000    0.0000 C   0  0
    0.0000   -1.5000    0.0000 C   0  0
    5.7489    1.9360    0.0000 C   0  0
    7.0495    2.6815    0.0000 C   0  0
    8.4746    2.2133    0.0000 C   0  0
   13.9431    1.6855    0.0000 C   0  0
   15.1529    0.8001    0.0000 C   0  0
   16.6212    1.1071    0.0000 C   0  0
  1  2  1  0
  2  3  2  0
  2  4  1  0
  4  5  1  0
  5  6  2  0
  6  7  1  0
  7  8  2  0
  8  9  1  0
  9 10  1  0
 10 11  1  0
 11 12  2  0
 11 13  1  0
 13 14  1  0
 14 15  2  0
 15 16  1  0
 16 17  2  0
 17 18  1  0
 18 19  1  0
 19 20  1  0
 20 21  2  0
 20 22  1  0
 22 23  1  0
 23 24  1  0
 24 25  1  4
 25 26  1  0
 24 27  1  0
 27 28  2  0
 28 22  1  0
 28 29  1  0
 29 30  2  0
 30 31  1  0
 30 32  1  0
 32 33  2  0
 33 34  1  0
 34 35  2  0
 35 36  1  0
 36 37  2  0
 37 27  1  0
 37 32  1  0
 19 38  2  0
 38 39  1  0
 39 17  1  0
 39 40  2  0
 40 14  1  0
 10 41  2  0
 41 42  1  0
 42  8  1  0
 42 43  2  0
 43  5  1  0
M  END
> <Smiles>
CC(=O)Nc1ccc2[nH]c(C(=O)Nc3ccc4[nH]c(C(=O)N5CC(CCl)c6c5cc(O)c5ccccc65)cc4c3)cc2c1

> <ID>
CHEMBL38957

> <standard_value>
1.24

> <IC50_uM>
0.00124

> <Activity>
Yes

> <pIC50>
8.906578315

> <BCI>
1

$$$$

  SciTegic03012415362D

 46 48  0  0  1  0            999 V2000
    3.3226   -0.5678    0.0000 C   0  0
    3.7653    0.8653    0.0000 C   0  0
    5.2285    1.1995    0.0000 C   0  0
    5.6699    2.6331    0.0000 C   0  0
    6.2502    0.1002    0.0000 C   0  0
    5.8088   -1.3334    0.0000 O   0  0
    7.7133    0.4344    0.0000 O   0  0
    8.7333   -0.6631    0.0000 C   0  0  1  0  0  0
    8.4477   -2.1356    0.0000 C   0  0
    7.0884   -2.7700    0.0000 C   0  0
    9.7602   -2.8626    0.0000 C   0  0
   10.8568   -1.8392    0.0000 C   0  0  2  0  0  0
   10.2220   -0.4797    0.0000 C   0  0  2  0  0  0
   10.9505    0.8296    0.0000 O   0  0
   10.1804    2.1177    0.0000 C   0  0
    8.6805    2.0944    0.0000 O   0  0
   10.9101    3.4292    0.0000 C   0  0
   10.1399    4.7174    0.0000 C   0  0
   10.8696    6.0289    0.0000 C   0  0
   10.0995    7.3171    0.0000 C   0  0
   10.8292    8.6286    0.0000 C   0  0
   10.0591    9.9167    0.0000 C   0  0
   10.7884   11.2275    0.0000 C   0  0
   12.3407   -2.0585    0.0000 C   0  0  1  0  0  0
   13.8327   -2.2127    0.0000 C   0  0
   11.6557   -0.7519    0.0000 O   0  0
   12.4180    0.5409    0.0000 C   0  0
   13.9179    0.5268    0.0000 C   0  0
   11.6807    1.8472    0.0000 O   0  0
   13.0944   -3.3553    0.0000 C   0  0
   12.5504   -4.7532    0.0000 C   0  0  2  0  0  0
   13.5780   -5.8498    0.0000 O   0  0
   15.0398   -5.5095    0.0000 C   0  0
   15.4753   -4.0741    0.0000 O   0  0
   16.0660   -6.6046    0.0000 C   0  0
   17.5277   -6.2644    0.0000 C   0  0
   18.5534   -7.3589    0.0000 C   0  0
   11.1184   -5.1995    0.0000 C   0  0  1  0  0  0
   11.8365   -5.8954    0.0000 O   0  0
    9.8766   -4.3581    0.0000 C   0  0  1  0  0  0
    8.7034   -5.2884    0.0000 O   0  0
    9.2191   -6.6970    0.0000 C   0  0
    8.3827   -7.9421    0.0000 O   0  0
   10.7181   -6.6418    0.0000 C   0  0  2  0  0  0
   11.7054   -6.4829    0.0000 C   0  0
   10.1431   -8.0272    0.0000 O   0  0
  1  2  1  0
  2  3  2  0
  3  4  1  0
  3  5  1  0
  5  6  2  0
  5  7  1  0
  8  7  1  6
  8  9  1  0
  9 10  1  0
  9 11  2  0
 12 11  1  6
 12 13  1  0
 13  8  1  0
 13 14  1  1
 14 15  1  0
 15 16  2  0
 15 17  1  0
 17 18  1  0
 18 19  1  0
 19 20  1  0
 20 21  1  0
 21 22  1  0
 22 23  1  0
 12 24  1  0
 24 25  1  6
 24 26  1  0
 26 27  1  0
 27 28  1  0
 27 29  2  0
 24 30  1  0
 30 31  1  0
 31 32  1  6
 32 33  1  0
 33 34  2  0
 33 35  1  0
 35 36  1  0
 36 37  1  0
 31 38  1  0
 38 39  1  1
 38 40  1  0
 40 11  1  0
 40 41  1  1
 41 42  1  0
 42 43  2  0
 42 44  1  0
 44 38  1  0
 44 45  1  1
 44 46  1  0
M  END
> <Smiles>
C/C=C(/C)C(=O)O[C@H]1C(C)=C2[C@H]([C@@H]1OC(=O)CCCCCCC)[C@@](C)(OC(C)=O)C[C@H](OC(=O)CCC)[C@@]1(O)[C@H]2OC(=O)[C@@]1(C)O

> <ID>
CHEMBL96926

> <standard_value>
1.945

> <IC50_uM>
0.001945

> <Activity>
Yes

> <pIC50>
8.711080394

> <BCI>
1

$$$$

  SciTegic03012415362D

 35 37  0  0  1  0            999 V2000
   -2.6450    2.0606    0.0000 C   0  0
   -3.9376    2.8217    0.0000 C   0  0
   -5.2435    2.0821    0.0000 C   0  0
   -5.2569    0.5814    0.0000 C   0  0
   -6.6940    0.1983    0.0000 C   0  0
   -6.7566   -1.3004    0.0000 S   0  0
   -5.3506   -1.8231    0.0000 C   0  0
   -4.9471   -3.2678    0.0000 C   0  0
   -4.4190   -0.6475    0.0000 N   0  0
   -3.9240    4.3226    0.0000 C   0  0  2  0  0  0
   -5.3603    4.5949    0.0000 C   0  0
   -6.3334    3.4456    0.0000 C   0  0  2  0  0  0
   -7.4676    2.2919    0.0000 O   0  0
   -5.8441    2.0516    0.0000 C   0  0  1  0  0  0
   -6.0768    0.5697    0.0000 C   0  0
   -4.3440    1.8025    0.0000 C   0  0
   -3.8648    0.3867    0.0000 C   0  0
   -2.4184    0.1362    0.0000 C   0  0
   -1.9131   -1.2521    0.0000 C   0  0  2  0  0  0
   -2.8780   -2.4005    0.0000 C   0  0
   -0.4449   -1.5128    0.0000 C   0  0  2  0  0  0
    0.0682   -2.9223    0.0000 O   0  0
    0.5123   -0.3693    0.0000 C   0  0  1  0  0  0
    1.9897   -0.6289    0.0000 C   0  0
    0.0070    1.0189    0.0000 C   0  0
   -1.4698    1.2816    0.0000 O   0  0
    0.9540    2.1406    0.0000 C   0  0
    1.8927    3.3106    0.0000 C   0  0
    1.4319    0.7188    0.0000 C   0  0
    0.4488    3.5288    0.0000 C   0  0  1  0  0  0
    1.4169    4.6745    0.0000 O   0  0
   -1.0035    3.7953    0.0000 C   0  0
   -1.5088    5.1836    0.0000 C   0  0
   -0.5350    6.3245    0.0000 O   0  0
   -2.9669    5.4660    0.0000 O   0  0
  1  2  1  0
  2  3  2  0
  3  4  1  0
  4  5  2  0
  5  6  1  0
  6  7  1  0
  7  8  1  0
  7  9  2  0
  9  4  1  0
 10  2  1  6
 10 11  1  0
 12 11  1  1
 12 13  1  0
 13 14  1  0
 14 12  1  0
 14 15  1  6
 14 16  1  0
 16 17  1  0
 17 18  1  0
 18 19  1  0
 19 20  1  1
 19 21  1  0
 21 22  1  1
 21 23  1  0
 23 24  1  6
 23 25  1  0
 25 26  2  0
 25 27  1  0
 27 28  1  0
 27 29  1  0
 27 30  1  0
 30 31  1  6
 30 32  1  0
 32 33  1  0
 33 34  2  0
 33 35  1  0
 35 10  1  0
M  END
> <Smiles>
C/C(=C\c1csc(C)n1)[C@@H]1C[C@@H]2O[C@]2(C)CCC[C@H](C)[C@H](O)[C@@H](C)C(=O)C(C)(C)[C@@H](O)CC(=O)O1

> <ID>
CHEMBL94657

> <standard_value>
2.271

> <IC50_uM>
0.002271

> <Activity>
Yes

> <pIC50>
8.643782866

> <BCI>
1

$$$$

  SciTegic03012415362D

 42 45  0  0  0  0            999 V2000
    2.5981   -1.5000    0.0000 N   0  0
    1.2990   -0.7500    0.0000 C   0  0
    1.2990    0.7500    0.0000 N   0  0
    0.0000    1.5000    0.0000 C   0  0
    0.0000    3.0000    0.0000 N   0  0
   -1.2990    0.7500    0.0000 C   0  0
   -2.5981    1.5000    0.0000 N   0  0
   -3.8971    0.7500    0.0000 C   0  0
   -5.1984    1.4977    0.0000 C   0  0
   -6.4971    0.7454    0.0000 N   0  0
   -7.7984    1.4932    0.0000 C   0  0
   -9.0975    0.7432    0.0000 C   0  0
  -10.3966    1.4932    0.0000 C   0  0
  -10.3966    2.9932    0.0000 C   0  0
  -11.6948    3.7462    0.0000 C   0  0
  -12.9952    2.9984    0.0000 O   0  0
  -11.6927    5.2470    0.0000 N   0  0
  -12.9910    6.0001    0.0000 C   0  0  3  0  0  0
  -12.9889    7.5009    0.0000 C   0  0
  -14.2871    8.2539    0.0000 C   0  0
  -14.2850    9.7548    0.0000 C   0  0
  -15.5832   10.5078    0.0000 N   0  0
  -15.5812   12.0086    0.0000 C   0  0
  -14.2808   12.7564    0.0000 O   0  0
  -16.8794   12.7617    0.0000 C   0  0
  -18.1785   12.0117    0.0000 C   0  0
  -19.4775   12.7617    0.0000 C   0  0
  -19.4776   14.2617    0.0000 C   0  0
  -18.1785   15.0117    0.0000 C   0  0
  -16.8795   14.2617    0.0000 C   0  0
  -15.5813   15.0149    0.0000 C   0  0
  -15.5835   16.5149    0.0000 O   0  0
  -14.2809   14.2672    0.0000 O   0  0
  -14.2936    5.2546    0.0000 C   0  0
  -15.5902    6.0086    0.0000 O   0  0
  -14.2987    3.7546    0.0000 O   0  0
   -9.0976    3.7432    0.0000 C   0  0
   -7.7985    2.9932    0.0000 C   0  0
   -3.8971   -0.7500    0.0000 C   0  0
   -2.5981   -1.5000    0.0000 N   0  0
   -1.2990   -0.7500    0.0000 C   0  0
    0.0000   -1.5000    0.0000 N   0  0
  1  2  1  0
  2  3  2  0
  3  4  1  0
  4  5  1  0
  4  6  2  0
  6  7  1  0
  7  8  2  0
  8  9  1  0
  9 10  1  0
 10 11  1  0
 11 12  2  0
 12 13  1  0
 13 14  2  0
 14 15  1  0
 15 16  2  0
 15 17  1  0
 18 17  1  4
 18 19  1  0
 19 20  1  0
 20 21  1  0
 21 22  1  0
 22 23  1  0
 23 24  2  0
 23 25  1  0
 25 26  2  0
 26 27  1  0
 27 28  2  0
 28 29  1  0
 29 30  2  0
 30 25  1  0
 30 31  1  0
 31 32  2  0
 31 33  1  0
 18 34  1  0
 34 35  2  0
 34 36  1  0
 14 37  1  0
 37 38  2  0
 38 11  1  0
  8 39  1  0
 39 40  2  0
 40 41  1  0
 41  6  1  0
 41 42  2  0
 42  2  1  0
M  END
> <Smiles>
Nc1nc(N)c2nc(CNc3ccc(C(=O)NC(CCCNC(=O)c4ccccc4C(=O)O)C(=O)O)cc3)cnc2n1

> <ID>
CHEMBL18155

> <standard_value>
2.3

> <IC50_uM>
0.0023

> <Activity>
Yes

> <pIC50>
8.638272164

> <BCI>
1

$$$$

  SciTegic03012415362D

 27 28  0  0  0  0            999 V2000
    5.1830  -10.5134    0.0000 C   0  0
    6.4833   -9.7656    0.0000 N   0  0
    6.4855   -8.2648    0.0000 N   0  0
    5.1873   -7.5117    0.0000 C   0  0
    3.8869   -8.2595    0.0000 O   0  0
    5.1894   -6.0109    0.0000 C   0  0
    3.8912   -5.2578    0.0000 C   0  0
    2.5909   -6.0056    0.0000 O   0  0
    3.8933   -3.7570    0.0000 N   0  0
    2.5951   -3.0039    0.0000 N   0  0
    1.2948   -3.7516    0.0000 C   0  0
    2.5973   -1.5031    0.0000 C   0  0
    3.8976   -0.7553    0.0000 S   0  0
    1.2990   -0.7500    0.0000 C   0  0
    1.2990    0.7500    0.0000 C   0  0
    0.0000    1.5000    0.0000 C   0  0
   -1.2990    0.7500    0.0000 C   0  0
   -1.2990   -0.7500    0.0000 C   0  0
    0.0000   -1.5000    0.0000 C   0  0
    7.7815  -10.5187    0.0000 C   0  0
    9.0819   -9.7710    0.0000 S   0  0
    7.7794  -12.0195    0.0000 C   0  0
    9.0758  -12.7741    0.0000 C   0  0
    9.0706  -14.2741    0.0000 C   0  0
    7.7690  -15.0196    0.0000 C   0  0
    6.4726  -14.2651    0.0000 C   0  0
    6.4778  -12.7651    0.0000 C   0  0
  1  2  1  0
  2  3  1  0
  3  4  1  0
  4  5  2  0
  4  6  1  0
  6  7  1  0
  7  8  2  0
  7  9  1  0
  9 10  1  0
 10 11  1  0
 10 12  1  0
 12 13  2  0
 12 14  1  0
 14 15  2  0
 15 16  1  0
 16 17  2  0
 17 18  1  0
 18 19  2  0
 19 14  1  0
  2 20  1  0
 20 21  2  0
 20 22  1  0
 22 23  2  0
 23 24  1  0
 24 25  2  0
 25 26  1  0
 26 27  2  0
 27 22  1  0
M  END
> <Smiles>
CN(NC(=O)CC(=O)NN(C)C(=S)c1ccccc1)C(=S)c1ccccc1

> <ID>
CHEMBL1972860

> <standard_value>
24.37

> <IC50_uM>
0.02437

> <Activity>
Yes

> <pIC50>
7.613144471

> <BCI>
1

$$$$

  SciTegic03012415362D

 43 46  0  0  0  0            999 V2000
    2.5981   -1.5000    0.0000 N   0  0
    1.2990   -0.7500    0.0000 C   0  0
    1.2990    0.7500    0.0000 N   0  0
    0.0000    1.5000    0.0000 C   0  0
    0.0000    3.0000    0.0000 N   0  0
   -1.2990    0.7500    0.0000 C   0  0
   -2.5981    1.5000    0.0000 N   0  0
   -3.8971    0.7500    0.0000 C   0  0
   -5.1984    1.4977    0.0000 C   0  0
   -6.4971    0.7454    0.0000 N   0  0
   -7.7984    1.4932    0.0000 C   0  0
   -9.0975    0.7432    0.0000 C   0  0
  -10.3966    1.4932    0.0000 C   0  0
  -10.3966    2.9932    0.0000 C   0  0
  -11.6948    3.7462    0.0000 C   0  0
  -12.9952    2.9984    0.0000 O   0  0
  -11.6927    5.2470    0.0000 N   0  0
  -12.9910    6.0001    0.0000 C   0  0  3  0  0  0
  -12.9889    7.5009    0.0000 C   0  0
  -14.2871    8.2539    0.0000 C   0  0
  -14.2850    9.7548    0.0000 C   0  0
  -15.5832   10.5078    0.0000 C   0  0
  -15.5812   12.0086    0.0000 N   0  0
  -16.8794   12.7617    0.0000 C   0  0
  -18.1797   12.0139    0.0000 O   0  0
  -16.8773   14.2625    0.0000 C   0  0
  -15.5757   15.0081    0.0000 C   0  0
  -15.5705   16.5081    0.0000 C   0  0
  -16.8670   17.2626    0.0000 C   0  0
  -18.1686   16.5170    0.0000 C   0  0
  -18.1737   15.0170    0.0000 C   0  0
  -19.4776   14.2738    0.0000 C   0  0
  -20.7730   15.0302    0.0000 O   0  0
  -19.4854   12.7738    0.0000 O   0  0
  -14.2936    5.2546    0.0000 C   0  0
  -15.5902    6.0086    0.0000 O   0  0
  -14.2987    3.7546    0.0000 O   0  0
   -9.0976    3.7432    0.0000 C   0  0
   -7.7985    2.9932    0.0000 C   0  0
   -3.8971   -0.7500    0.0000 C   0  0
   -2.5981   -1.5000    0.0000 N   0  0
   -1.2990   -0.7500    0.0000 C   0  0
    0.0000   -1.5000    0.0000 N   0  0
  1  2  1  0
  2  3  2  0
  3  4  1  0
  4  5  1  0
  4  6  2  0
  6  7  1  0
  7  8  2  0
  8  9  1  0
  9 10  1  0
 10 11  1  0
 11 12  2  0
 12 13  1  0
 13 14  2  0
 14 15  1  0
 15 16  2  0
 15 17  1  0
 18 17  1  4
 18 19  1  0
 19 20  1  0
 20 21  1  0
 21 22  1  0
 22 23  1  0
 23 24  1  0
 24 25  2  0
 24 26  1  0
 26 27  2  0
 27 28  1  0
 28 29  2  0
 29 30  1  0
 30 31  2  0
 31 26  1  0
 31 32  1  0
 32 33  2  0
 32 34  1  0
 18 35  1  0
 35 36  2  0
 35 37  1  0
 14 38  1  0
 38 39  2  0
 39 11  1  0
  8 40  1  0
 40 41  2  0
 41 42  1  0
 42  6  1  0
 42 43  2  0
 43  2  1  0
M  END
> <Smiles>
Nc1nc(N)c2nc(CNc3ccc(C(=O)NC(CCCCNC(=O)c4ccccc4C(=O)O)C(=O)O)cc3)cnc2n1

> <ID>
CHEMBL44919

> <standard_value>
26

> <IC50_uM>
0.026

> <Activity>
Yes

> <pIC50>
7.585026652

> <BCI>
1

$$$$

  SciTegic03012415362D

 33 35  0  0  1  0            999 V2000
    1.2948   -3.7516    0.0000 C   0  0
    2.5951   -3.0039    0.0000 N   0  0
    2.5973   -1.5031    0.0000 C   0  0
    1.2990   -0.7500    0.0000 C   0  0
    1.2990    0.7500    0.0000 C   0  0
    0.0000    1.5000    0.0000 N   0  0
   -1.2990    0.7500    0.0000 C   0  0
   -2.5981    1.5000    0.0000 N   0  0
   -3.8971    0.7500    0.0000 C   0  0
   -5.1962    1.5000    0.0000 N   0  0
   -3.8971   -0.7500    0.0000 N   0  0
   -2.5981   -1.5000    0.0000 C   0  0
   -2.5981   -3.0000    0.0000 N   0  0
   -1.2990   -0.7500    0.0000 C   0  0
    0.0000   -1.5000    0.0000 N   0  0
    3.8933   -3.7570    0.0000 C   0  0
    3.8934   -5.2570    0.0000 C   0  0
    5.1924   -6.0070    0.0000 C   0  0
    6.4915   -5.2571    0.0000 C   0  0
    7.7928   -6.0048    0.0000 C   0  0
    7.7953   -7.5048    0.0000 O   0  0
    9.0914   -5.2526    0.0000 N   0  0
   10.3927   -6.0004    0.0000 C   0  0  1  0  0  0
   11.6914   -5.2481    0.0000 C   0  0
   12.9927   -5.9959    0.0000 C   0  0
   14.2914   -5.2437    0.0000 C   0  0
   15.5920   -5.9910    0.0000 O   0  0
   14.2888   -3.7437    0.0000 O   0  0
   10.3984   -7.5012    0.0000 C   0  0
   11.6998   -8.2471    0.0000 O   0  0
    9.1020   -8.2557    0.0000 O   0  0
    6.4915   -3.7571    0.0000 C   0  0
    5.1925   -3.0070    0.0000 C   0  0
  1  2  1  0
  2  3  1  0
  3  4  1  0
  4  5  2  0
  5  6  1  0
  6  7  2  0
  7  8  1  0
  8  9  2  0
  9 10  1  0
  9 11  1  0
 11 12  2  0
 12 13  1  0
 12 14  1  0
 14  7  1  0
 14 15  2  0
 15  4  1  0
  2 16  1  0
 16 17  2  0
 17 18  1  0
 18 19  2  0
 19 20  1  0
 20 21  2  0
 20 22  1  0
 23 22  1  1
 23 24  1  0
 24 25  1  0
 25 26  1  0
 26 27  2  0
 26 28  1  0
 23 29  1  0
 29 30  2  0
 29 31  1  0
 19 32  1  0
 32 33  2  0
 33 16  1  0
M  END
> <Smiles>
CN(Cc1cnc2nc(N)nc(N)c2n1)c1ccc(C(=O)N[C@@H](CCC(=O)O)C(=O)O)cc1

> <ID>
CHEMBL34259

> <standard_value>
35

> <IC50_uM>
0.035

> <Activity>
Yes

> <pIC50>
7.455931956

> <BCI>
1

$$$$

  SciTegic03012415362D

 24 27  0  0  1  0            999 V2000
    1.4851   -1.5024    0.0000 C   0  0
    2.1092   -0.1384    0.0000 O   0  0
    3.6065    0.0000    0.0000 C   0  0  1  0  0  0
    2.7248   -1.2135    0.0000 C   0  0  2  0  0  0
    3.1905   -2.6376    0.0000 C   0  0
    4.6589   -2.9478    0.0000 O   0  0
    5.1253   -4.3743    0.0000 C   0  0
    4.1234   -5.4906    0.0000 N   0  0
    6.5929   -4.6843    0.0000 O   0  0
    1.2990   -0.7500    0.0000 C   0  0
    1.2990    0.7500    0.0000 C   0  0
    0.0000    1.5000    0.0000 C   0  0
    0.0000    3.0000    0.0000 O   0  0
   -1.2990    0.7500    0.0000 C   0  0
   -2.5981    1.5000    0.0000 C   0  0
   -1.2990   -0.7500    0.0000 C   0  0
   -2.5981   -1.5000    0.0000 N   0  0
    0.0000   -1.5000    0.0000 C   0  0
    0.0000   -3.0000    0.0000 O   0  0
    2.7248    1.2135    0.0000 N   0  0
    3.6281    2.3993    0.0000 C   0  0
    5.0501    1.9218    0.0000 C   0  0  2  0  0  0
    6.3350    1.1594    0.0000 N   0  0
    5.0354    0.4219    0.0000 C   0  0  2  0  0  0
  1  2  1  0
  3  2  1  1
  3  4  1  0
  4  5  1  6
  5  6  1  0
  6  7  1  0
  7  8  1  0
  7  9  2  0
  4 10  1  0
 10 11  2  0
 11 12  1  0
 12 13  2  0
 12 14  1  0
 14 15  1  0
 14 16  2  0
 16 17  1  0
 16 18  1  0
 18 10  1  0
 18 19  2  0
 11 20  1  0
 20  3  1  0
 20 21  1  0
 22 21  1  6
 22 23  1  0
 24 23  1  6
 24 22  1  0
 24  3  1  0
M  END
> <Smiles>
CO[C@@]12[C@H](COC(N)=O)C3=C(C(=O)C(C)=C(N)C3=O)N1C[C@@H]1N[C@@H]12

> <ID>
CHEMBL105

> <standard_value>
38

> <IC50_uM>
0.038

> <Activity>
Yes

> <pIC50>
7.420216403

> <BCI>
1

$$$$

  SciTegic03012415362D

 41 44  0  0  0  0            999 V2000
    2.5981   -1.5000    0.0000 N   0  0
    1.2990   -0.7500    0.0000 C   0  0
    1.2990    0.7500    0.0000 N   0  0
    0.0000    1.5000    0.0000 C   0  0
    0.0000    3.0000    0.0000 N   0  0
   -1.2990    0.7500    0.0000 C   0  0
   -2.5981    1.5000    0.0000 N   0  0
   -3.8971    0.7500    0.0000 C   0  0
   -5.1984    1.4977    0.0000 C   0  0
   -6.4971    0.7454    0.0000 N   0  0
   -7.7984    1.4932    0.0000 C   0  0
   -9.0975    0.7432    0.0000 C   0  0
  -10.3966    1.4932    0.0000 C   0  0
  -10.3966    2.9932    0.0000 C   0  0
  -11.6948    3.7462    0.0000 C   0  0
  -12.9952    2.9984    0.0000 O   0  0
  -11.6927    5.2470    0.0000 N   0  0
  -12.9910    6.0001    0.0000 C   0  0  3  0  0  0
  -12.9889    7.5009    0.0000 C   0  0
  -14.2871    8.2539    0.0000 C   0  0
  -14.2850    9.7548    0.0000 N   0  0
  -15.5832   10.5078    0.0000 C   0  0
  -16.8836    9.7600    0.0000 O   0  0
  -15.5812   12.0086    0.0000 C   0  0
  -14.2795   12.7543    0.0000 C   0  0
  -14.2744   14.2543    0.0000 C   0  0
  -15.5708   15.0087    0.0000 C   0  0
  -16.8724   14.2632    0.0000 C   0  0
  -16.8776   12.7632    0.0000 C   0  0
  -18.1815   12.0199    0.0000 C   0  0
  -19.4768   12.7763    0.0000 O   0  0
  -18.1893   10.5200    0.0000 O   0  0
  -14.2936    5.2546    0.0000 C   0  0
  -15.5902    6.0086    0.0000 O   0  0
  -14.2987    3.7546    0.0000 O   0  0
   -9.0976    3.7432    0.0000 C   0  0
   -7.7985    2.9932    0.0000 C   0  0
   -3.8971   -0.7500    0.0000 C   0  0
   -2.5981   -1.5000    0.0000 N   0  0
   -1.2990   -0.7500    0.0000 C   0  0
    0.0000   -1.5000    0.0000 N   0  0
  1  2  1  0
  2  3  2  0
  3  4  1  0
  4  5  1  0
  4  6  2  0
  6  7  1  0
  7  8  2  0
  8  9  1  0
  9 10  1  0
 10 11  1  0
 11 12  2  0
 12 13  1  0
 13 14  2  0
 14 15  1  0
 15 16  2  0
 15 17  1  0
 18 17  1  4
 18 19  1  0
 19 20  1  0
 20 21  1  0
 21 22  1  0
 22 23  2  0
 22 24  1  0
 24 25  2  0
 25 26  1  0
 26 27  2  0
 27 28  1  0
 28 29  2  0
 29 24  1  0
 29 30  1  0
 30 31  2  0
 30 32  1  0
 18 33  1  0
 33 34  2  0
 33 35  1  0
 14 36  1  0
 36 37  2  0
 37 11  1  0
  8 38  1  0
 38 39  2  0
 39 40  1  0
 40  6  1  0
 40 41  2  0
 41  2  1  0
M  END
> <Smiles>
Nc1nc(N)c2nc(CNc3ccc(C(=O)NC(CCNC(=O)c4ccccc4C(=O)O)C(=O)O)cc3)cnc2n1

> <ID>
CHEMBL42819

> <standard_value>
57

> <IC50_uM>
0.057

> <Activity>
Yes

> <pIC50>
7.244125144

> <BCI>
1

$$$$

  SciTegic03012415362D

 42 43  0  0  1  0            999 V2000
   -6.2838    8.6217    0.0000 C   0  0
   -6.2887    7.1217    0.0000 C   0  0
   -4.9919    6.3662    0.0000 C   0  0
   -4.9968    4.8654    0.0000 N   0  0
   -3.7000    4.1100    0.0000 C   0  0
   -3.7000    2.6000    0.0000 C   0  0
   -5.0100    1.8400    0.0000 C   0  0
   -5.0100    0.3400    0.0000 C   0  0  1  0  0  0
   -6.3055   -0.4161    0.0000 C   0  0
   -3.7000   -0.4000    0.0000 C   0  0
   -3.2700   -2.0600    0.0000 C   0  0  2  0  0  0
   -4.1920   -3.2317    0.0000 O   0  0
   -5.6765   -3.0162    0.0000 C   0  0
   -1.0900   -1.9100    0.0000 C   0  0  2  0  0  0
   -0.7453   -0.4501    0.0000 O   0  0
    0.2000   -2.6700    0.0000 C   0  0  1  0  0  0
    0.1950   -4.1700    0.0000 C   0  0
    1.5100   -1.9100    0.0000 C   0  0
    2.8100   -2.6700    0.0000 C   0  0
    2.8075   -4.1700    0.0000 C   0  0
    4.1200   -1.9100    0.0000 C   0  0  2  0  0  0
    5.4195   -2.6606    0.0000 O   0  0
    5.4202   -4.1615    0.0000 C   0  0
    4.1213   -4.9116    0.0000 N   0  0
    6.7191   -4.9117    0.0000 O   0  0
    4.1200   -0.4000    0.0000 C   0  0  1  0  0  0
    2.6430   -0.1342    0.0000 O   0  0
    1.6740   -1.2792    0.0000 C   0  0
    5.4200    0.3400    0.0000 C   0  0
    5.4200    1.8400    0.0000 C   0  0
    4.1200    2.6000    0.0000 C   0  0
    2.8100    1.8400    0.0000 C   0  0
    2.8075    0.3400    0.0000 C   0  0
    1.5100    2.6000    0.0000 C   0  0
    1.5125    4.1000    0.0000 O   0  0
    0.2000    1.8400    0.0000 N   0  0
   -1.0900    2.6000    0.0000 C   0  0
   -1.0900    4.1100    0.0000 C   0  0
   -2.4000    4.8600    0.0000 C   0  0
   -2.4025    6.3600    0.0000 O   0  0
   -2.4000    1.8400    0.0000 C   0  0
   -2.4025    0.3400    0.0000 O   0  0
  1  2  2  0
  2  3  1  0
  3  4  1  0
  4  5  1  0
  5  6  2  0
  6  7  1  0
  7  8  1  0
  8  9  1  6
  8 10  1  0
 10 11  1  0
 11 12  1  1
 12 13  1  0
 11 14  1  0
 14 15  1  6
 14 16  1  0
 16 17  1  6
 16 18  1  0
 18 19  2  0
 19 20  1  0
 19 21  1  0
 21 22  1  1
 22 23  1  0
 23 24  1  0
 23 25  2  0
 21 26  1  0
 26 27  1  1
 27 28  1  0
 26 29  1  0
 29 30  2  0
 30 31  1  0
 31 32  2  0
 32 33  1  0
 32 34  1  0
 34 35  2  0
 34 36  1  0
 36 37  1  0
 37 38  2  0
 38 39  1  0
 39  5  1  0
 39 40  2  0
 37 41  1  0
 41  6  1  0
 41 42  2  0
M  END
> <Smiles>
C=CCNC1=C2C[C@@H](C)C[C@H](OC)[C@H](O)[C@@H](C)/C=C(\C)[C@H](OC(N)=O)[C@@H](OC)/C=C\C=C(/C)C(=O)NC(=CC1=O)C2=O

> <ID>
CHEMBL109480

> <standard_value>
66.81

> <IC50_uM>
0.06681

> <Activity>
Yes

> <pIC50>
7.175158528

> <BCI>
1

$$$$

  SciTegic03012415362D

 24 27  0  0  0  0            999 V2000
    6.8067   -6.0878    0.0000 C   0  0
    5.5290   -6.8737    0.0000 O   0  0
    4.2107   -6.1619    0.0000 C   0  0
    4.0146   -4.6747    0.0000 C   0  0
    2.5536   -4.4230    0.0000 C   0  0
    1.8032   -3.1233    0.0000 C   0  0
    2.4133   -1.7530    0.0000 C   0  0
    1.2990   -0.7500    0.0000 C   0  0
    1.2990    0.7500    0.0000 C   0  0
    0.0000    1.5000    0.0000 C   0  0
   -1.2990    0.7500    0.0000 C   0  0
   -1.2990   -0.7500    0.0000 C   0  0
    0.0000   -1.5000    0.0000 C   0  0
    0.3114   -2.9665    0.0000 N   0  0
    1.8242   -5.7201    0.0000 N   0  0
    2.8570   -6.8080    0.0000 C   0  0
    2.5812   -8.2806    0.0000 C   0  0
    1.1659   -8.7799    0.0000 C   0  0
   -0.0469   -7.9190    0.0000 N   0  0
   -1.2399   -8.8283    0.0000 C   0  0
   -2.6768   -8.3976    0.0000 C   0  0
   -0.7438  -10.2439    0.0000 C   0  0
    0.7558  -10.2095    0.0000 C   0  0
    1.6721  -11.3971    0.0000 C   0  0
  1  2  1  0
  2  3  1  0
  3  4  2  0
  4  5  1  0
  5  6  1  0
  6  7  2  0
  7  8  1  0
  8  9  2  0
  9 10  1  0
 10 11  2  0
 11 12  1  0
 12 13  2  0
 13  8  1  0
 13 14  1  0
 14  6  1  0
  5 15  2  0
 15 16  1  0
 16  3  1  0
 16 17  2  0
 17 18  1  0
 18 19  1  0
 19 20  1  0
 20 21  1  0
 20 22  2  0
 22 23  1  0
 23 18  2  0
 23 24  1  0
M  END
> <Smiles>
COC1=CC(c2cc3ccccc3[nH]2)=N/C1=C\c1[nH]c(C)cc1C.CS(=O)(=O)O

> <ID>
CHEMBL2107358

> <standard_value>
116.16

> <IC50_uM>
0.11616

> <Activity>
Yes

> <pIC50>
6.934943397

> <BCI>
1

> <RemovedSalts>
CS(=O)(=O)O

$$$$

  SciTegic03012415362D

 25 27  0  0  1  0            999 V2000
    6.1718    0.7439    0.0000 N   0  0
    7.0537   -0.4695    0.0000 C   0  0
    8.5454   -0.3119    0.0000 O   0  0
    6.4430   -1.8405    0.0000 N   0  0
    4.9531   -1.9978    0.0000 C   0  0
    3.9511   -0.8815    0.0000 C   0  0
    2.5987   -1.5004    0.0000 C   0  0
    1.2990   -0.7500    0.0000 C   0  0
    1.2990    0.7500    0.0000 C   0  0
    0.0000    1.5000    0.0000 C   0  0
   -1.2990    0.7500    0.0000 C   0  0
   -1.2990   -0.7500    0.0000 C   0  0
   -2.5981   -1.5000    0.0000 F   0  0
    0.0000   -1.5000    0.0000 C   0  0
    2.7343   -2.9815    0.0000 S   0  0
    4.2010   -3.2956    0.0000 C   0  0
    4.8054   -4.6666    0.0000 C   0  0
    6.2966   -4.8284    0.0000 O   0  0
    3.9195   -5.8781    0.0000 N   0  0
    4.5250   -7.2514    0.0000 C   0  0  1  0  0  0
    3.6414   -8.4636    0.0000 C   0  0
    4.2492   -9.8349    0.0000 C   0  0
    5.7408   -9.9941    0.0000 C   0  0
    6.6244   -8.7820    0.0000 N   0  0
    6.0165   -7.4107    0.0000 C   0  0
  1  2  1  0
  2  3  2  0
  2  4  1  0
  4  5  1  0
  5  6  1  0
  6  7  2  0
  7  8  1  0
  8  9  2  0
  9 10  1  0
 10 11  2  0
 11 12  1  0
 12 13  1  0
 12 14  2  0
 14  8  1  0
  7 15  1  0
 15 16  1  0
 16  5  2  0
 16 17  1  0
 17 18  2  0
 17 19  1  0
 20 19  1  6
 20 21  1  0
 21 22  1  0
 22 23  1  0
 23 24  1  0
 24 25  1  0
 25 20  1  0
M  END
> <Smiles>
NC(=O)Nc1cc(-c2cccc(F)c2)sc1C(=O)N[C@H]1CCCNC1

> <ID>
CHEMBL2041933

> <standard_value>
136.8

> <IC50_uM>
0.1368

> <Activity>
Yes

> <pIC50>
6.863913903

> <BCI>
1

$$$$

  SciTegic03012415362D

 33 40  0  0  1  0            999 V2000
   -2.8249   -3.0782    0.0000 C   0  0
   -1.4100   -2.5800    0.0000 C   0  0  2  0  0  0
   -0.1700   -1.6900    0.0000 O   0  0
    1.0600   -2.5800    0.0000 C   0  0  2  0  0  0
    0.5600   -4.0500    0.0000 C   0  0
   -0.9400   -4.0500    0.0000 C   0  0  1  0  0  0
   -2.4287   -3.8664    0.0000 O   0  0
   -0.3167   -5.4008    0.0000 C   0  0
    1.1747   -5.5617    0.0000 O   0  0
    1.6000   -1.1100    0.0000 N   0  0
    3.0200   -0.4800    0.0000 C   0  0
    4.4200   -1.1200    0.0000 C   0  0
    5.6800   -0.2100    0.0000 C   0  0
    5.5200    1.3100    0.0000 C   0  0
    4.1100    1.9400    0.0000 C   0  0
    2.8600    1.0300    0.0000 C   0  0
    1.3500    1.3600    0.0000 C   0  0
    0.5900    2.7000    0.0000 C   0  0
   -0.9400    2.7100    0.0000 C   0  0
   -1.7200    1.3700    0.0000 C   0  0
   -3.2300    1.0500    0.0000 C   0  0
   -4.4800    1.9600    0.0000 C   0  0
   -5.8800    1.3300    0.0000 C   0  0
   -6.0500   -0.1900    0.0000 C   0  0
   -4.8000   -1.1000    0.0000 C   0  0
   -3.3900   -0.4700    0.0000 C   0  0
   -1.9800   -1.1000    0.0000 N   0  0
   -0.9500    0.0400    0.0000 C   0  0
    0.5600    0.0300    0.0000 C   0  0
   -1.4200    4.1700    0.0000 C   0  0
   -0.1700    5.0800    0.0000 N   0  0
    1.0600    4.1700    0.0000 C   0  0
    2.4875    4.6307    0.0000 O   0  0
  2  1  1  6
  2  3  1  0
  4  3  1  1
  4  5  1  0
  5  6  1  0
  6  2  1  0
  6  7  1  1
  6  8  1  0
  8  9  1  0
  4 10  1  0
 10 11  1  0
 11 12  2  0
 12 13  1  0
 13 14  2  0
 14 15  1  0
 15 16  2  0
 16 11  1  0
 16 17  1  0
 17 18  2  0
 18 19  1  0
 19 20  2  0
 20 21  1  0
 21 22  2  0
 22 23  1  0
 23 24  2  0
 24 25  1  0
 25 26  2  0
 26 21  1  0
 26 27  1  0
 27  2  1  0
 27 28  1  0
 28 20  1  0
 28 29  2  0
 29 17  1  0
 29 10  1  0
 19 30  1  0
 30 31  1  0
 31 32  1  0
 32 18  1  0
 32 33  2  0
M  END
> <Smiles>
C[C@]12O[C@H](C[C@]1(O)CO)n1c3ccccc3c3c4c(c5c6ccccc6n2c5c31)CNC4=O

> <ID>
CHEMBL603469

> <standard_value>
174.57

> <IC50_uM>
0.17457

> <Activity>
Yes

> <pIC50>
6.758030388

> <BCI>
1

$$$$

  SciTegic03012415362D

 28 30  0  0  0  0            999 V2000
    2.5981   -1.5000    0.0000 N   0  0
    1.2990   -0.7500    0.0000 C   0  0
    1.2990    0.7500    0.0000 C   0  0
    0.0000    1.5000    0.0000 C   0  0
   -1.2990    0.7500    0.0000 C   0  0
   -1.2990   -0.7500    0.0000 C   0  0
    0.0000   -1.5000    0.0000 C   0  0
   -0.0031   -3.0008    0.0000 N   0  0
   -1.3039   -3.7494    0.0000 C   0  0
   -2.6016   -2.9971    0.0000 O   0  0
   -1.3070   -5.2502    0.0000 C   0  0
   -2.6060   -6.0003    0.0000 C   0  0
   -2.6060   -7.5003    0.0000 C   0  0
   -1.3070   -8.2503    0.0000 C   0  0
   -1.3040   -9.7511    0.0000 C   0  0
   -0.0032  -10.4997    0.0000 N   0  0
   -0.0001  -12.0006    0.0000 C   0  0
   -1.2978  -12.7528    0.0000 O   0  0
    1.3007  -12.7491    0.0000 O   0  0
    1.3038  -14.2500    0.0000 C   0  0
    2.6046  -14.9985    0.0000 C   0  0
    2.6098  -16.4986    0.0000 C   0  0
    3.9114  -17.2441    0.0000 C   0  0
    5.2079  -16.4896    0.0000 C   0  0
    5.2027  -14.9896    0.0000 N   0  0
    3.9011  -14.2441    0.0000 C   0  0
   -0.0080   -7.5003    0.0000 C   0  0
   -0.0079   -6.0003    0.0000 C   0  0
  1  2  1  0
  2  3  2  0
  3  4  1  0
  4  5  2  0
  5  6  1  0
  6  7  2  0
  7  2  1  0
  7  8  1  0
  8  9  1  0
  9 10  2  0
  9 11  1  0
 11 12  2  0
 12 13  1  0
 13 14  2  0
 14 15  1  0
 15 16  1  0
 16 17  1  0
 17 18  2  0
 17 19  1  0
 19 20  1  0
 20 21  1  0
 21 22  2  0
 22 23  1  0
 23 24  2  0
 24 25  1  0
 25 26  2  0
 26 21  1  0
 14 27  1  0
 27 28  2  0
 28 11  1  0
M  END
> <Smiles>
Nc1ccccc1NC(=O)c1ccc(CNC(=O)OCc2cccnc2)cc1

> <ID>
CHEMBL27759

> <standard_value>
195.93

> <IC50_uM>
0.19593

> <Activity>
Yes

> <pIC50>
6.707899062

> <BCI>
1

$$$$

  SciTegic03012415362D

 30 33  0  0  1  0            999 V2000
    3.8964    0.7545    0.0000 C   0  0
    3.8990   -0.7455    0.0000 C   0  0  1  0  0  0
    2.6003   -1.4977    0.0000 O   0  0
    1.2990   -0.7500    0.0000 C   0  0
    1.2990    0.7500    0.0000 C   0  0
    0.0000    1.5000    0.0000 C   0  0
    0.0000    3.0008    0.0000 C   0  0
    1.2121    3.8625    0.0000 C   0  0
    0.7463    5.2884    0.0000 N   0  0
   -0.7537    5.2860    0.0000 N   0  0
   -1.6377    6.4987    0.0000 C   0  0
   -1.1355    7.9069    0.0000 C   0  0
   -2.1078    9.0491    0.0000 C   0  0
   -3.5831    8.7781    0.0000 N   0  0
   -4.0862    7.3650    0.0000 C   0  0
   -3.1139    6.2228    0.0000 C   0  0
   -1.2149    3.8587    0.0000 C   0  0
   -1.2990    0.7500    0.0000 C   0  0
   -1.2990   -0.7500    0.0000 N   0  0
    0.0000   -1.5000    0.0000 C   0  0
    0.0000   -3.0000    0.0000 N   0  0
    5.2003   -1.4932    0.0000 C   0  0
    5.2056   -2.9933    0.0000 C   0  0
    3.9091   -3.7478    0.0000 Cl  0  0
    6.5072   -3.7388    0.0000 C   0  0
    7.8036   -2.9844    0.0000 C   0  0
    7.7985   -1.4844    0.0000 C   0  0
    9.0949   -0.7299    0.0000 F   0  0
    6.4969   -0.7388    0.0000 C   0  0
    6.4918    0.7612    0.0000 Cl  0  0
  2  1  1  6
  2  3  1  0
  3  4  1  0
  4  5  2  0
  5  6  1  0
  6  7  1  0
  7  8  1  0
  8  9  2  0
  9 10  1  0
 10 11  1  0
 11 12  1  0
 12 13  1  0
 13 14  1  0
 14 15  1  0
 15 16  1  0
 16 11  1  0
 10 17  1  0
 17  7  2  0
  6 18  2  0
 18 19  1  0
 19 20  2  0
 20  4  1  0
 20 21  1  0
  2 22  1  0
 22 23  2  0
 23 24  1  0
 23 25  1  0
 25 26  2  0
 26 27  1  0
 27 28  1  0
 27 29  2  0
 29 22  1  0
 29 30  1  0
M  END
> <Smiles>
C[C@@H](Oc1cc(-c2cnn(C3CCNCC3)c2)cnc1N)c1c(Cl)ccc(F)c1Cl

> <ID>
CHEMBL601719

> <standard_value>
204.24

> <IC50_uM>
0.20424

> <Activity>
Yes

> <pIC50>
6.689859198

> <BCI>
1

$$$$

  SciTegic03012415362D

 39 42  0  0  1  0            999 V2000
    7.5203    5.8645    0.0000 C   0  0
    6.0354    5.6521    0.0000 C   0  0
    5.4756    4.2596    0.0000 C   0  0
    6.4016    3.0795    0.0000 C   0  0
    3.9899    4.0472    0.0000 C   0  0
    3.4302    2.6546    0.0000 C   0  0
    1.9699    2.4097    0.0000 C   0  0  2  0  0  0
    0.6417    3.1067    0.0000 C   0  0
    3.2891    1.6709    0.0000 C   0  0  2  0  0  0
    4.5832    2.4294    0.0000 C   0  0
    3.2891    0.2287    0.0000 C   0  0
    1.9699   -0.4749    0.0000 C   0  0
    0.7739    0.2462    0.0000 C   0  0  1  0  0  0
   -0.4573   -0.4573    0.0000 C   0  0
   -1.6885    0.2287    0.0000 C   0  0
   -1.6885    1.6885    0.0000 C   0  0  2  0  0  0
   -2.9933    2.4316    0.0000 O   0  0
   -4.2892    1.6745    0.0000 C   0  0
   -4.2810    0.1746    0.0000 O   0  0
   -5.5932    2.4174    0.0000 C   0  0
   -6.8895    1.6626    0.0000 C   0  0
   -8.1914    2.4077    0.0000 C   0  0
   -8.1970    3.9077    0.0000 C   0  0
   -9.4988    4.6528    0.0000 O   0  0
   -6.9008    4.6626    0.0000 C   0  0
   -5.5989    3.9175    0.0000 C   0  0
   -0.4573    2.4272    0.0000 C   0  0
    0.7739    1.6885    0.0000 C   0  0  1  0  0  0
   -0.6508   -2.1282    0.0000 C   0  0  1  0  0  0
   -1.8646   -2.9937    0.0000 O   0  0
   -3.2300   -2.3705    0.0000 C   0  0
   -3.3723   -0.8773    0.0000 C   0  0
   -4.4522   -3.2400    0.0000 O   0  0
    1.3016   -2.4624    0.0000 O   0  0
    1.5654   -0.8091    0.0000 C   0  0  1  0  0  0
    2.9657   -1.3574    0.0000 O   0  0
    3.1937   -2.8408    0.0000 C   0  0
    2.0234   -3.7791    0.0000 C   0  0
    4.5913   -3.3857    0.0000 O   0  0
  1  2  2  0
  2  3  1  0
  3  4  1  0
  3  5  2  0
  5  6  1  0
  6  7  1  0
  7  8  1  1
  7  9  1  0
  9 10  1  6
  9 11  1  0
 11 12  1  0
 13 12  1  1
 13 14  1  0
 14 15  2  0
 15 16  1  0
 16 17  1  6
 17 18  1  0
 18 19  2  0
 18 20  1  0
 20 21  2  0
 21 22  1  0
 22 23  2  0
 23 24  1  0
 23 25  1  0
 25 26  2  0
 26 20  1  0
 16 27  1  0
 28 27  1  1
 28  7  1  0
 28 13  1  0
 14 29  1  0
 29 30  1  6
 30 31  1  0
 31 32  1  0
 31 33  2  0
 29 34  1  0
 34 35  1  0
 35 13  1  0
 35 36  1  6
 36 37  1  0
 37 38  1  0
 37 39  2  0
M  END
> <Smiles>
C=C/C(C)=C/C[C@]1(C)[C@H](C)CC[C@@]23C(=C[C@H](OC(=O)c4ccc(O)cc4)C[C@@H]12)[C@@H](OC(C)=O)O[C@H]3OC(C)=O

> <ID>
CHEMBL501177

> <standard_value>
290

> <IC50_uM>
0.29

> <Activity>
Yes

> <pIC50>
6.537602002

> <BCI>
1

$$$$

  SciTegic03012415362D

 43 46  0  0  1  0            999 V2000
    6.0039    7.5545    0.0000 C   0  0
    4.6812    6.8471    0.0000 C   0  0
    4.6315    5.3471    0.0000 C   0  0
    5.9052    4.5548    0.0000 C   0  0
    3.3080    4.6393    0.0000 C   0  0
    3.2583    3.1393    0.0000 C   0  0
    1.9699    2.4097    0.0000 C   0  0  2  0  0  0
    0.6417    3.1067    0.0000 C   0  0
    3.2891    1.6709    0.0000 C   0  0  2  0  0  0
    4.5832    2.4294    0.0000 C   0  0
    3.2891    0.2287    0.0000 C   0  0
    1.9699   -0.4749    0.0000 C   0  0  2  0  0  0
    1.9054   -1.9750    0.0000 O   0  0
    2.8186   -3.1661    0.0000 C   0  0
    4.3058   -2.9704    0.0000 O   0  0
    2.2446   -4.5528    0.0000 C   0  0
    3.1556   -5.7445    0.0000 C   0  0
    2.5791   -7.1293    0.0000 C   0  0
    1.0916   -7.3225    0.0000 C   0  0
    0.5151   -8.7073    0.0000 O   0  0
    0.1805   -6.1308    0.0000 C   0  0
    0.7570   -4.7460    0.0000 C   0  0
    0.7739    0.2462    0.0000 C   0  0  1  0  0  0
   -0.4573   -0.4573    0.0000 C   0  0
   -1.6885    0.2287    0.0000 C   0  0
   -1.6885    1.6885    0.0000 C   0  0  2  0  0  0
   -2.9933    2.4316    0.0000 O   0  0
   -4.2892    1.6745    0.0000 C   0  0
   -4.2810    0.1746    0.0000 C   0  0
   -5.5925    2.4170    0.0000 O   0  0
   -0.4573    2.4272    0.0000 C   0  0
    0.7739    1.6885    0.0000 C   0  0  1  0  0  0
   -0.6508   -2.1282    0.0000 C   0  0  1  0  0  0
   -1.8646   -2.9937    0.0000 O   0  0
   -3.2300   -2.3705    0.0000 C   0  0
   -3.3723   -0.8773    0.0000 C   0  0
   -4.4522   -3.2400    0.0000 O   0  0
    1.3016   -2.4624    0.0000 O   0  0
    1.5654   -0.8091    0.0000 C   0  0  1  0  0  0
    2.9906   -0.3290    0.0000 O   0  0
    4.3892   -0.8733    0.0000 C   0  0
    4.6166   -2.3559    0.0000 C   0  0
    5.5599    0.0646    0.0000 O   0  0
  1  2  2  0
  2  3  1  0
  3  4  1  0
  3  5  2  0
  5  6  1  0
  6  7  1  0
  7  8  1  1
  7  9  1  0
  9 10  1  6
  9 11  1  0
 11 12  1  0
 12 13  1  6
 13 14  1  0
 14 15  2  0
 14 16  1  0
 16 17  2  0
 17 18  1  0
 18 19  2  0
 19 20  1  0
 19 21  1  0
 21 22  2  0
 22 16  1  0
 12 23  1  0
 23 24  1  1
 24 25  2  0
 25 26  1  0
 26 27  1  6
 27 28  1  0
 28 29  1  0
 28 30  2  0
 26 31  1  0
 32 31  1  1
 32  7  1  0
 32 23  1  0
 24 33  1  0
 33 34  1  6
 34 35  1  0
 35 36  1  0
 35 37  2  0
 33 38  1  0
 38 39  1  0
 39 23  1  0
 39 40  1  6
 40 41  1  0
 41 42  1  0
 41 43  2  0
M  END
> <Smiles>
C=C/C(C)=C/C[C@]1(C)[C@H](C)C[C@H](OC(=O)c2ccc(O)cc2)[C@@]23C(=C[C@H](OC(C)=O)C[C@@H]12)[C@@H](OC(C)=O)O[C@H]3OC(C)=O

> <ID>
CHEMBL509263

> <standard_value>
290

> <IC50_uM>
0.29

> <Activity>
Yes

> <pIC50>
6.537602002

> <BCI>
1

$$$$

  SciTegic03012415362D

 40 43  0  0  1  0            999 V2000
    6.0039    7.5545    0.0000 C   0  0
    4.6812    6.8471    0.0000 C   0  0
    4.6315    5.3471    0.0000 C   0  0
    5.9052    4.5548    0.0000 C   0  0
    3.3080    4.6393    0.0000 C   0  0
    3.2583    3.1393    0.0000 C   0  0
    1.9699    2.4097    0.0000 C   0  0  2  0  0  0
    0.6417    3.1067    0.0000 C   0  0
    3.2891    1.6709    0.0000 C   0  0  2  0  0  0
    4.5832    2.4294    0.0000 C   0  0
    3.2891    0.2287    0.0000 C   0  0
    1.9699   -0.4749    0.0000 C   0  0  2  0  0  0
    1.9305   -1.9744    0.0000 O   0  0
    0.7739    0.2462    0.0000 C   0  0  1  0  0  0
   -0.4573   -0.4573    0.0000 C   0  0
   -1.6885    0.2287    0.0000 C   0  0
   -1.6885    1.6885    0.0000 C   0  0  2  0  0  0
   -2.9933    2.4316    0.0000 O   0  0
   -4.2892    1.6745    0.0000 C   0  0
   -4.2810    0.1746    0.0000 O   0  0
   -5.5932    2.4174    0.0000 C   0  0
   -6.8895    1.6626    0.0000 C   0  0
   -8.1914    2.4077    0.0000 C   0  0
   -8.1970    3.9077    0.0000 C   0  0
   -9.4988    4.6528    0.0000 O   0  0
   -6.9008    4.6626    0.0000 C   0  0
   -5.5989    3.9175    0.0000 C   0  0
   -0.4573    2.4272    0.0000 C   0  0
    0.7739    1.6885    0.0000 C   0  0  1  0  0  0
   -0.6508   -2.1282    0.0000 C   0  0  1  0  0  0
   -1.8646   -2.9937    0.0000 O   0  0
   -3.2300   -2.3705    0.0000 C   0  0
   -3.3723   -0.8773    0.0000 C   0  0
   -4.4522   -3.2400    0.0000 O   0  0
    1.3016   -2.4624    0.0000 O   0  0
    1.5654   -0.8091    0.0000 C   0  0  1  0  0  0
    3.0688   -0.8454    0.0000 O   0  0
    3.7904   -2.1614    0.0000 C   0  0
    3.0115   -3.4433    0.0000 C   0  0
    5.2900   -2.1954    0.0000 O   0  0
  1  2  2  0
  2  3  1  0
  3  4  1  0
  3  5  2  0
  5  6  1  0
  6  7  1  0
  7  8  1  1
  7  9  1  0
  9 10  1  6
  9 11  1  0
 11 12  1  0
 12 13  1  6
 12 14  1  0
 14 15  1  1
 15 16  2  0
 16 17  1  0
 17 18  1  6
 18 19  1  0
 19 20  2  0
 19 21  1  0
 21 22  2  0
 22 23  1  0
 23 24  2  0
 24 25  1  0
 24 26  1  0
 26 27  2  0
 27 21  1  0
 17 28  1  0
 29 28  1  1
 29  7  1  0
 29 14  1  0
 15 30  1  0
 30 31  1  6
 31 32  1  0
 32 33  1  0
 32 34  2  0
 30 35  1  0
 35 36  1  0
 36 14  1  0
 36 37  1  6
 37 38  1  0
 38 39  1  0
 38 40  2  0
M  END
> <Smiles>
C=C/C(C)=C/C[C@]1(C)[C@H](C)C[C@H](O)[C@@]23C(=C[C@H](OC(=O)c4ccc(O)cc4)C[C@@H]12)[C@@H](OC(C)=O)O[C@H]3OC(C)=O

> <ID>
CHEMBL500119

> <standard_value>
290

> <IC50_uM>
0.29

> <Activity>
Yes

> <pIC50>
6.537602002

> <BCI>
1

$$$$

  SciTegic03012415362D

 41 44  0  0  1  0            999 V2000
    7.5203    5.8645    0.0000 C   0  0
    6.0354    5.6521    0.0000 C   0  0
    5.4756    4.2596    0.0000 C   0  0
    6.4016    3.0795    0.0000 C   0  0
    3.9899    4.0472    0.0000 C   0  0
    3.4302    2.6546    0.0000 C   0  0
    1.9699    2.4097    0.0000 C   0  0  2  0  0  0
    0.6417    3.1067    0.0000 C   0  0
    3.2891    1.6709    0.0000 C   0  0  2  0  0  0
    4.5832    2.4294    0.0000 C   0  0
    3.2891    0.2287    0.0000 C   0  0
    1.9699   -0.4749    0.0000 C   0  0
    0.7739    0.2462    0.0000 C   0  0  1  0  0  0
   -0.4573   -0.4573    0.0000 C   0  0
   -1.6885    0.2287    0.0000 C   0  0
   -1.6885    1.6885    0.0000 C   0  0  2  0  0  0
   -2.9933    2.4316    0.0000 O   0  0
   -4.2892    1.6745    0.0000 C   0  0
   -4.2810    0.1746    0.0000 O   0  0
   -5.5932    2.4174    0.0000 C   0  0
   -6.8895    1.6626    0.0000 C   0  0
   -8.1914    2.4077    0.0000 C   0  0
   -8.1970    3.9077    0.0000 C   0  0
   -9.4988    4.6528    0.0000 O   0  0
   -6.9008    4.6626    0.0000 C   0  0
   -6.9033    6.1634    0.0000 O   0  0
   -5.6061    6.9164    0.0000 C   0  0
   -5.5989    3.9175    0.0000 C   0  0
   -0.4573    2.4272    0.0000 C   0  0
    0.7739    1.6885    0.0000 C   0  0  1  0  0  0
   -0.6508   -2.1282    0.0000 C   0  0  1  0  0  0
   -1.8646   -2.9937    0.0000 O   0  0
   -3.2300   -2.3705    0.0000 C   0  0
   -3.3723   -0.8773    0.0000 C   0  0
   -4.4522   -3.2400    0.0000 O   0  0
    1.3016   -2.4624    0.0000 O   0  0
    1.5654   -0.8091    0.0000 C   0  0  1  0  0  0
    2.9657   -1.3574    0.0000 O   0  0
    3.1937   -2.8408    0.0000 C   0  0
    2.0234   -3.7791    0.0000 C   0  0
    4.5913   -3.3857    0.0000 O   0  0
  1  2  2  0
  2  3  1  0
  3  4  1  0
  3  5  2  0
  5  6  1  0
  6  7  1  0
  7  8  1  1
  7  9  1  0
  9 10  1  6
  9 11  1  0
 11 12  1  0
 13 12  1  1
 13 14  1  0
 14 15  2  0
 15 16  1  0
 16 17  1  6
 17 18  1  0
 18 19  2  0
 18 20  1  0
 20 21  2  0
 21 22  1  0
 22 23  2  0
 23 24  1  0
 23 25  1  0
 25 26  1  0
 26 27  1  0
 25 28  2  0
 28 20  1  0
 16 29  1  0
 30 29  1  1
 30  7  1  0
 30 13  1  0
 14 31  1  0
 31 32  1  6
 32 33  1  0
 33 34  1  0
 33 35  2  0
 31 36  1  0
 36 37  1  0
 37 13  1  0
 37 38  1  6
 38 39  1  0
 39 40  1  0
 39 41  2  0
M  END
> <Smiles>
C=C/C(C)=C/C[C@]1(C)[C@H](C)CC[C@@]23C(=C[C@H](OC(=O)c4ccc(O)c(OC)c4)C[C@@H]12)[C@@H](OC(C)=O)O[C@H]3OC(C)=O

> <ID>
CHEMBL505172

> <standard_value>
290

> <IC50_uM>
0.29

> <Activity>
Yes

> <pIC50>
6.537602002

> <BCI>
1

$$$$

  SciTegic03012415362D

 33 36  0  0  0  0            999 V2000
    3.8983   -0.7459    0.0000 C   0  0
    2.6003   -1.4977    0.0000 O   0  0
    1.2990   -0.7500    0.0000 C   0  0
    1.2990    0.7500    0.0000 C   0  0
    0.0000    1.5000    0.0000 C   0  0
   -0.3115    2.9665    0.0000 N   0  0
   -1.8032    3.1233    0.0000 C   0  0
   -2.4133    1.7530    0.0000 N   0  0
   -3.8813    1.4408    0.0000 C   0  0
   -5.0460    2.3579    0.0000 C   0  0
   -6.2823    1.5084    0.0000 C   0  0
   -7.6935    2.0116    0.0000 O   0  0
   -7.9648    3.4877    0.0000 C   0  0
   -9.3784    3.9918    0.0000 C   0  0
  -10.5193    3.0178    0.0000 C   0  0
  -11.9331    3.5188    0.0000 C   0  0
  -12.2063    4.9937    0.0000 C   0  0
  -11.0655    5.9677    0.0000 C   0  0
   -9.6516    5.4668    0.0000 C   0  0
   -8.5102    6.4413    0.0000 C   0  0
   -8.7825    7.9164    0.0000 F   0  0
   -7.0965    5.9400    0.0000 F   0  0
   -7.3691    7.4148    0.0000 F   0  0
   -5.8565    0.0701    0.0000 C   0  0
   -6.7662   -1.1203    0.0000 C   0  0
   -8.2537   -0.9270    0.0000 N   0  0
   -6.1904   -2.5054    0.0000 O   0  0
   -4.3570    0.0307    0.0000 S   0  0
   -1.2990    0.7500    0.0000 C   0  0
   -1.2990   -0.7500    0.0000 C   0  0
    0.0000   -1.5000    0.0000 C   0  0
   -0.0031   -3.0008    0.0000 O   0  0
   -1.3032   -3.7490    0.0000 C   0  0
  1  2  1  0
  2  3  1  0
  3  4  2  0
  4  5  1  0
  5  6  1  0
  6  7  2  0
  7  8  1  0
  8  9  1  0
  9 10  2  0
 10 11  1  0
 11 12  1  0
 12 13  1  0
 13 14  1  0
 14 15  2  0
 15 16  1  0
 16 17  2  0
 17 18  1  0
 18 19  2  0
 19 14  1  0
 19 20  1  0
 20 21  1  0
 20 22  1  0
 20 23  1  0
 11 24  2  0
 24 25  1  0
 25 26  1  0
 25 27  2  0
 24 28  1  0
 28  9  1  0
  8 29  1  0
 29  5  2  0
 29 30  1  0
 30 31  2  0
 31  3  1  0
 31 32  1  0
 32 33  1  0
M  END
> <Smiles>
COc1cc2ncn(-c3cc(OCc4ccccc4C(F)(F)F)c(C(N)=O)s3)c2cc1OC

> <ID>
CHEMBL514499

> <standard_value>
336.47

> <IC50_uM>
0.33647

> <Activity>
Yes

> <pIC50>
6.473053652

> <BCI>
1

$$$$

  SciTegic03012415362D

 28 31  0  0  0  0            999 V2000
    2.5981   -1.5000    0.0000 C   0  0
    1.2990   -0.7500    0.0000 C   0  0
    1.2990    0.7500    0.0000 C   0  0
    2.5987    1.5004    0.0000 C   0  0
    3.8991    0.7525    0.0000 C   0  0
    5.1969    1.5046    0.0000 C   0  0
    5.1945    3.0046    0.0000 C   0  0
    6.4930    3.7570    0.0000 C   0  0
    6.4883    5.2571    0.0000 C   0  0
    7.7850    6.0112    0.0000 C   0  0
    9.0864    5.2653    0.0000 C   0  0
    9.0912    3.7653    0.0000 C   0  0
    7.7945    3.0112    0.0000 C   0  0
    7.7993    1.5112    0.0000 F   0  0
    3.8943    3.7525    0.0000 C   0  0
    2.5964    3.0004    0.0000 C   0  0
    0.0000    1.5000    0.0000 N   0  0
   -1.2990    0.7500    0.0000 C   0  0
   -2.5981    1.5000    0.0000 C   0  0
   -3.8971    0.7500    0.0000 C   0  0
   -3.8971   -0.7500    0.0000 C   0  0
   -5.1961   -1.5000    0.0000 F   0  0
   -2.5981   -1.5000    0.0000 C   0  0
   -1.2990   -0.7500    0.0000 C   0  0
    0.0000   -1.5000    0.0000 C   0  0
    0.0031   -3.0008    0.0000 C   0  0
    1.3032   -3.7490    0.0000 O   0  0
   -1.2946   -3.7531    0.0000 O   0  0
  1  2  1  0
  2  3  2  0
  3  4  1  0
  4  5  2  0
  5  6  1  0
  6  7  2  0
  7  8  1  0
  8  9  2  0
  9 10  1  0
 10 11  2  0
 11 12  1  0
 12 13  2  0
 13  8  1  0
 13 14  1  0
  7 15  1  0
 15 16  2  0
 16  4  1  0
  3 17  1  0
 17 18  2  0
 18 19  1  0
 19 20  2  0
 20 21  1  0
 21 22  1  0
 21 23  2  0
 23 24  1  0
 24 18  1  0
 24 25  2  0
 25  2  1  0
 25 26  1  0
 26 27  2  0
 26 28  1  0
M  END
> <Smiles>
Cc1c(-c2ccc(-c3ccccc3F)cc2)nc2ccc(F)cc2c1C(=O)O

> <ID>
CHEMBL38434

> <standard_value>
346.74

> <IC50_uM>
0.34674

> <Activity>
Yes

> <pIC50>
6.459996055

> <BCI>
1

$$$$

  SciTegic03012415362D

 96101  0  0  1  0            999 V2000
   -5.1966   -1.4840    0.0000 C   0  0
   -3.8945   -0.7393    0.0000 C   0  0
   -3.8883    0.7607    0.0000 C   0  0
   -5.1842    1.5160    0.0000 N   0  0
   -2.5862    1.5053    0.0000 N   0  0
   -1.2903    0.7500    0.0000 C   0  0
    0.0141    1.4924    0.0000 C   0  0  2  0  0  0
    1.3105    0.7362    0.0000 C   0  0
    2.6141    1.4800    0.0000 C   0  0
    2.6212    2.9800    0.0000 N   0  0
    3.9098    0.7243    0.0000 O   0  0
    0.0243    2.9931    0.0000 N   0  0
    1.3287    3.7355    0.0000 C   0  0
    1.3389    5.2363    0.0000 C   0  0  2  0  0  0
    0.0448    5.9947    0.0000 N   0  0
    2.6433    5.9787    0.0000 C   0  0
    3.9374    5.2203    0.0000 N   0  0
    2.6535    7.4787    0.0000 O   0  0
   -1.2964   -0.7500    0.0000 N   0  0
   -2.5985   -1.4947    0.0000 C   0  0
   -2.6016   -2.9955    0.0000 C   0  0
   -1.3039   -3.7478    0.0000 O   0  0
   -3.9024   -3.7441    0.0000 N   0  0
   -3.9055   -5.2449    0.0000 C   0  0  2  0  0  0
   -2.6078   -5.9988    0.0000 C   0  0
   -1.3070   -5.2519    0.0000 O   0  0
   -2.6109   -7.4996    0.0000 N   0  0
   -1.3132   -8.2535    0.0000 C   0  0  2  0  0  0
   -0.0124   -7.5066    0.0000 C   0  0
   -1.3163   -9.7543    0.0000 C   0  0  1  0  0  0
   -2.6171  -10.5012    0.0000 O   0  0
   -0.0185  -10.5082    0.0000 C   0  0  2  0  0  0
    1.2823   -9.7613    0.0000 C   0  0
   -0.0216  -12.0091    0.0000 C   0  0
   -1.3224  -12.7560    0.0000 O   0  0
    1.2761  -12.7630    0.0000 N   0  0
    1.2730  -14.2638    0.0000 C   0  0  2  0  0  0
    2.5707  -15.0177    0.0000 C   0  0
    3.8716  -14.2708    0.0000 O   0  0
    2.5676  -16.5185    0.0000 N   0  0
    3.8654  -17.2724    0.0000 C   0  0
    3.8623  -18.7733    0.0000 C   0  0
    5.1600  -19.5272    0.0000 C   0  0
    5.2969  -21.0081    0.0000 N   0  0
    6.7640  -21.3209    0.0000 C   0  0
    7.3735  -22.6923    0.0000 C   0  0
    6.7176  -24.0218    0.0000 N   0  0
    7.8048  -25.0553    0.0000 C   0  0
    7.6110  -26.5410    0.0000 C   0  0
    6.2257  -27.1162    0.0000 O   0  0
    8.8022  -27.4539    0.0000 N   0  0
    8.6081  -28.9421    0.0000 C   0  0
    9.7993  -29.8551    0.0000 C   0  0
    9.6052  -31.3433    0.0000 C   0  0
   10.7964  -32.2563    0.0000 S   0  3
   10.6024  -33.7437    0.0000 C   0  0
   12.1817  -31.6811    0.0000 C   0  0
    9.1236  -24.3407    0.0000 C   0  0
    8.8516  -22.8656    0.0000 S   0  0
    7.5148  -20.0223    0.0000 C   0  0
    6.5118  -18.9070    0.0000 S   0  0
   -0.0270  -15.0138    0.0000 C   0  0  1  0  0  0
   -1.3256  -14.2630    0.0000 C   0  0
   -0.0284  -16.5138    0.0000 O   0  0
   -5.2070   -5.9922    0.0000 C   0  0  1  0  0  0
   -6.5038   -5.2366    0.0000 O   0  0
   -7.8069   -5.9811    0.0000 C   0  0  2  0  0  0
   -7.8109   -7.4811    0.0000 O   0  0
   -9.1118   -8.2278    0.0000 C   0  0  1  0  0  0
   -9.1126   -9.7286    0.0000 C   0  0
   -7.8144  -10.4801    0.0000 O   0  0
  -10.4089   -7.4745    0.0000 C   0  0  1  0  0  0
  -11.7099   -8.2212    0.0000 O   0  0
  -10.4051   -5.9745    0.0000 C   0  0  2  0  0  0
  -11.7022   -5.2212    0.0000 O   0  0
   -9.1041   -5.2278    0.0000 C   0  0  2  0  0  0
   -9.1034   -3.7270    0.0000 O   0  0
  -10.4024   -2.9751    0.0000 C   0  0  1  0  0  0
  -11.7008   -3.7263    0.0000 O   0  0
  -13.0005   -2.9775    0.0000 C   0  0  2  0  0  0
  -14.2980   -3.7318    0.0000 C   0  0
  -14.2945   -5.2318    0.0000 O   0  0
  -13.0019   -1.4775    0.0000 C   0  0  1  0  0  0
  -14.3017   -0.7287    0.0000 O   0  0
  -11.7036   -0.7263    0.0000 C   0  0  2  0  0  0
  -11.7081    0.7745    0.0000 O   0  0
  -13.0096    1.5219    0.0000 C   0  0
  -14.3066    0.7684    0.0000 N   0  0
  -13.0141    3.0218    0.0000 O   0  0
  -10.4039   -1.4751    0.0000 C   0  0  2  0  0  0
   -9.1055   -0.7239    0.0000 O   0  0
   -5.2122   -7.4930    0.0000 C   0  0
   -6.4267   -8.3515    0.0000 C   0  0
   -5.9647   -9.7786    0.0000 N   0  0
   -4.4647   -9.7803    0.0000 C   0  0
   -3.9996   -8.3542    0.0000 N   0  0
  1  2  1  0
  2  3  2  0
  3  4  1  0
  3  5  1  0
  5  6  2  0
  6  7  1  0
  7  8  1  1
  8  9  1  0
  9 10  1  0
  9 11  2  0
  7 12  1  0
 12 13  1  0
 13 14  1  0
 14 15  1  6
 14 16  1  0
 16 17  1  0
 16 18  2  0
  6 19  1  0
 19 20  2  0
 20  2  1  0
 20 21  1  0
 21 22  2  0
 21 23  1  0
 24 23  1  6
 24 25  1  0
 25 26  2  0
 25 27  1  0
 27 28  1  0
 28 29  1  6
 28 30  1  0
 30 31  1  6
 30 32  1  0
 32 33  1  6
 32 34  1  0
 34 35  2  0
 34 36  1  0
 37 36  1  6
 37 38  1  0
 38 39  2  0
 38 40  1  0
 40 41  1  0
 41 42  1  0
 42 43  1  0
 43 44  2  0
 44 45  1  0
 45 46  1  0
 46 47  2  0
 47 48  1  0
 48 49  1  0
 49 50  2  0
 49 51  1  0
 51 52  1  0
 52 53  1  0
 53 54  1  0
 54 55  1  0
 55 56  1  0
 55 57  1  0
 48 58  2  0
 58 59  1  0
 59 46  1  0
 45 60  2  0
 60 61  1  0
 61 43  1  0
 37 62  1  0
 62 63  1  6
 62 64  1  0
 24 65  1  0
 65 66  1  6
 67 66  1  6
 67 68  1  0
 68 69  1  0
 69 70  1  1
 70 71  1  0
 69 72  1  0
 72 73  1  1
 72 74  1  0
 74 75  1  6
 74 76  1  0
 76 67  1  0
 76 77  1  6
 78 77  1  1
 78 79  1  0
 79 80  1  0
 80 81  1  6
 81 82  1  0
 80 83  1  0
 83 84  1  1
 83 85  1  0
 85 86  1  6
 86 87  1  0
 87 88  1  0
 87 89  2  0
 85 90  1  0
 90 78  1  0
 90 91  1  6
 65 92  1  0
 92 93  2  0
 93 94  1  0
 94 95  1  0
 95 96  2  0
 96 92  1  0
M  CHG  1  55   1
M  END
> <Smiles>
Cc1c(N)nc([C@H](CC(N)=O)NC[C@H](N)C(N)=O)nc1C(=O)N[C@H](C(=O)N[C@H](C)[C@@H](O)[C@H](C)C(=O)N[C@H](C(=O)NCCc1nc(-c2nc(C(=O)NCCC[S+](C)C)cs2)cs1)[C@@H](C)O)[C@@H](O[C@@H]1O[C@@H](CO)[C@@H](O)[C@H](O)[C
@@H]1O[C@H]1O[C@H](CO)[C@@H](O)[C@H](OC(N)=O)[C@@H]1O)c1c[nH]cn1

> <ID>
CHEMBL403664

> <standard_value>
393.05

> <IC50_uM>
0.39305

> <Activity>
Yes

> <pIC50>
6.405552199

> <BCI>
1

$$$$

  SciTegic03012415362D

 23 25  0  0  0  0            999 V2000
   -1.3109   -5.2364    0.0000 C   0  0
   -0.0156   -5.9927    0.0000 O   0  0
    1.2883   -5.2495    0.0000 C   0  0
    2.5847   -6.0040    0.0000 C   0  0
    3.8864   -5.2585    0.0000 C   0  0
    3.8915   -3.7585    0.0000 C   0  0
    5.1954   -3.0153    0.0000 O   0  0
    6.4908   -3.7717    0.0000 C   0  0
    2.5951   -3.0039    0.0000 C   0  0
    2.5973   -1.5031    0.0000 C   0  0
    1.2990   -0.7500    0.0000 C   0  0  3  0  0  0
    1.2990    0.7500    0.0000 C   0  0
    0.0000    1.5000    0.0000 C   0  0
   -1.2990    0.7500    0.0000 C   0  0
   -2.5981    1.5000    0.0000 N   0  0
   -3.8971    0.7500    0.0000 C   0  0
   -5.1962    1.5000    0.0000 N   0  0
   -3.8971   -0.7500    0.0000 N   0  0
   -2.5981   -1.5000    0.0000 C   0  0
   -2.5981   -3.0000    0.0000 N   0  0
   -1.2990   -0.7500    0.0000 C   0  0
    0.0000   -1.5000    0.0000 C   0  0
    1.2935   -3.7495    0.0000 C   0  0
  1  2  1  0
  2  3  1  0
  3  4  2  0
  4  5  1  0
  5  6  2  0
  6  7  1  0
  7  8  1  0
  6  9  1  0
  9 10  1  0
 11 10  1  4
 11 12  1  0
 12 13  1  0
 13 14  1  0
 14 15  2  0
 15 16  1  0
 16 17  1  0
 16 18  2  0
 18 19  1  0
 19 20  1  0
 19 21  2  0
 21 14  1  0
 21 22  1  0
 22 11  1  0
  9 23  2  0
 23  3  1  0
M  END
> <Smiles>
COc1ccc(OC)c(CC2CCc3nc(N)nc(N)c3C2)c1

> <ID>
CHEMBL7375

> <standard_value>
430

> <IC50_uM>
0.43

> <Activity>
Yes

> <pIC50>
6.366531544

> <BCI>
1

$$$$

  SciTegic03012415362D

 38 42  0  0  1  0            999 V2000
    2.5951   -3.0031    0.0000 C   0  0
    2.5973   -1.5031    0.0000 C   0  0
    1.2990   -0.7500    0.0000 C   0  0  2  0  0  0
    1.2990    0.7500    0.0000 C   0  0
    2.5981    1.5000    0.0000 O   0  0
    0.0000    1.5000    0.0000 N   0  0
    0.0000    3.0000    0.0000 C   0  0
   -1.2990    0.7500    0.0000 C   0  0
   -2.5981    1.5000    0.0000 C   0  0
   -3.8971    0.7500    0.0000 N   0  0
   -3.8971   -0.7500    0.0000 C   0  0
   -5.1953   -1.5031    0.0000 N   0  0
   -5.1932   -3.0039    0.0000 C   0  0
   -3.8915   -3.7495    0.0000 C   0  0
   -3.8863   -5.2495    0.0000 C   0  0
   -5.1828   -6.0040    0.0000 C   0  0
   -5.1807   -7.5048    0.0000 C   0  0
   -3.8803   -8.2526    0.0000 O   0  0
   -6.4789   -8.2579    0.0000 N   0  0
   -6.4768   -9.7587    0.0000 C   0  0
   -7.7732  -10.5133    0.0000 C   0  0
   -7.7681  -12.0133    0.0000 C   0  0
   -6.4664  -12.7588    0.0000 N   0  0
   -6.4613  -14.2588    0.0000 C   0  0
   -5.1700  -12.0043    0.0000 C   0  0
   -5.1752  -10.5044    0.0000 C   0  0
   -6.4844   -5.2585    0.0000 C   0  0
   -6.4896   -3.7585    0.0000 C   0  0
   -7.7935   -3.0153    0.0000 O   0  0
   -9.0888   -3.7717    0.0000 C   0  0
   -2.5981   -1.5000    0.0000 N   0  0
   -1.2990   -0.7500    0.0000 C   0  0
    0.0000   -1.5000    0.0000 N   0  0
    0.0000   -3.0008    0.0000 C   0  0
   -1.2122   -3.8625    0.0000 C   0  0
   -0.7464   -5.2884    0.0000 C   0  0
    0.7536   -5.2860    0.0000 C   0  0
    1.2149   -3.8587    0.0000 C   0  0
  1  2  1  0
  3  2  1  1
  3  4  1  0
  4  5  2  0
  4  6  1  0
  6  7  1  0
  6  8  1  0
  8  9  2  0
  9 10  1  0
 10 11  2  0
 11 12  1  0
 12 13  1  0
 13 14  2  0
 14 15  1  0
 15 16  2  0
 16 17  1  0
 17 18  2  0
 17 19  1  0
 19 20  1  0
 20 21  1  0
 21 22  1  0
 22 23  1  0
 23 24  1  0
 23 25  1  0
 25 26  1  0
 26 20  1  0
 16 27  1  0
 27 28  2  0
 28 13  1  0
 28 29  1  0
 29 30  1  0
 11 31  1  0
 31 32  2  0
 32  8  1  0
 32 33  1  0
 33  3  1  0
 33 34  1  0
 34 35  1  0
 35 36  1  0
 36 37  1  0
 37 38  1  0
 38 34  1  0
M  END
> <Smiles>
CC[C@@H]1C(=O)N(C)c2cnc(Nc3ccc(C(=O)NC4CCN(C)CC4)cc3OC)nc2N1C1CCCC1

> <ID>
CHEMBL513909

> <standard_value>
486.84

> <IC50_uM>
0.48684

> <Activity>
Yes

> <pIC50>
6.312613746

> <BCI>
1

$$$$

  SciTegic03012415362D

 37 42  0  0  0  0            999 V2000
    2.5981   -1.5000    0.0000 F   0  0
    1.2990   -0.7500    0.0000 C   0  0
    1.2990    0.7500    0.0000 C   0  0
    0.0000    1.5000    0.0000 C   0  0
    0.0000    3.0008    0.0000 C   0  0
    1.2978    3.7529    0.0000 C   0  0
    1.2954    5.2529    0.0000 C   0  0
   -0.0048    6.0009    0.0000 N   0  0
   -1.3026    5.2488    0.0000 C   0  0
   -2.6051    5.9945    0.0000 N   0  0
   -3.9026    5.2401    0.0000 C   0  0
   -5.2055    5.9835    0.0000 C   0  0
   -6.5007    5.2270    0.0000 C   0  0
   -6.4931    3.7270    0.0000 C   0  0
   -7.7890    2.9700    0.0000 N   0  0
   -9.1445    3.5821    0.0000 C   0  0
  -10.1408    2.4607    0.0000 N   0  0
   -9.3822    1.1667    0.0000 C   0  0
   -9.9835   -0.2083    0.0000 N   0  0
  -11.4527   -0.4849    0.0000 C   0  0
  -11.9486   -1.9006    0.0000 C   0  0
  -10.9705   -3.0379    0.0000 O   0  0
   -9.4966   -2.7595    0.0000 C   0  0
   -9.0007   -1.3438    0.0000 C   0  0
   -7.9171    1.4883    0.0000 N   0  0
   -5.1903    2.9835    0.0000 C   0  0
   -3.8951    3.7401    0.0000 C   0  0
   -1.3002    3.7488    0.0000 N   0  0
   -1.2990    0.7500    0.0000 C   0  0
   -1.2990   -0.7500    0.0000 C   0  0
   -2.5987   -1.5004    0.0000 N   0  0
   -3.8991   -0.7525    0.0000 C   0  0
   -5.1969   -1.5046    0.0000 C   0  0
   -5.1945   -3.0046    0.0000 O   0  0
   -3.8943   -3.7525    0.0000 C   0  0
   -2.5964   -3.0004    0.0000 C   0  0
    0.0000   -1.5000    0.0000 C   0  0
  1  2  1  0
  2  3  2  0
  3  4  1  0
  4  5  1  0
  5  6  1  0
  6  7  2  0
  7  8  1  0
  8  9  1  0
  9 10  2  0
 10 11  1  0
 11 12  2  0
 12 13  1  0
 13 14  2  0
 14 15  1  0
 15 16  1  0
 16 17  2  0
 17 18  1  0
 18 19  1  0
 19 20  1  0
 20 21  1  0
 21 22  1  0
 22 23  1  0
 23 24  1  0
 24 19  1  0
 18 25  2  0
 25 15  1  0
 14 26  1  0
 26 27  2  0
 27 11  1  0
  9 28  1  0
 28  5  2  0
  4 29  2  0
 29 30  1  0
 30 31  1  0
 31 32  1  0
 32 33  1  0
 33 34  1  0
 34 35  1  0
 35 36  1  0
 36 31  1  0
 30 37  2  0
 37  2  1  0
M  END
> <Smiles>
Fc1cc(-c2cc[nH]/c(=N/c3ccc(-n4cnc(N5CCOCC5)n4)cc3)n2)cc(N2CCOCC2)c1

> <ID>
CHEMBL585951

> <standard_value>
672.91

> <IC50_uM>
0.67291

> <Activity>
Yes

> <pIC50>
6.172043018

> <BCI>
1

$$$$

  SciTegic03012415362D

 39 42  0  0  0  0            999 V2000
   23.0854   -2.6631    0.0000 C   0  0
   22.0040   -3.7026    0.0000 N   0  0
   22.2002   -5.1898    0.0000 C   0  0
   20.8464   -5.8358    0.0000 C   0  0
   20.5707   -7.3085    0.0000 N   0  0
   19.1554   -7.8078    0.0000 C   0  0
   18.0162   -6.8319    0.0000 O   0  0
   18.8791   -9.2830    0.0000 C   0  0
   17.4638   -9.7822    0.0000 C   0  0
   17.1876  -11.2574    0.0000 S   0  3
   15.7730  -11.7564    0.0000 C   0  0
   18.3267  -12.2333    0.0000 C   0  0
   19.8137   -4.7480    0.0000 C   0  0
   20.5431   -3.4509    0.0000 C   0  0
   19.7927   -2.1512    0.0000 C   0  0
   20.4028   -0.7808    0.0000 N   0  0
   19.2885    0.2221    0.0000 C   0  0
   19.2885    1.7221    0.0000 C   0  0
   17.9895    2.4721    0.0000 C   0  0
   17.9864    3.9729    0.0000 C   0  0
   19.2841    4.7252    0.0000 O   0  0
   16.6856    4.7215    0.0000 N   0  0
   16.6825    6.2223    0.0000 C   0  0
   15.3834    6.9724    0.0000 C   0  0
   15.3834    8.4724    0.0000 C   0  0
   16.6824    9.2224    0.0000 C   0  0
   16.6854   10.7232    0.0000 N   0  0
   17.9862   11.4718    0.0000 C   0  0
   17.9893   12.9727    0.0000 C   0  0
   19.2894   13.7209    0.0000 Cl  0  0
   15.3885   11.4786    0.0000 C   0  0
   15.3932   12.9794    0.0000 C   0  0
   14.0970   13.7343    0.0000 Cl  0  0
   17.9814    8.4725    0.0000 C   0  0
   17.9815    6.9725    0.0000 C   0  0
   16.6904    1.7221    0.0000 C   0  0
   16.6904    0.2221    0.0000 C   0  0
   17.9895   -0.5279    0.0000 C   0  0
   18.3009   -1.9944    0.0000 N   0  0
  1  2  1  0
  2  3  1  0
  3  4  2  0
  4  5  1  0
  5  6  1  0
  6  7  2  0
  6  8  1  0
  8  9  1  0
  9 10  1  0
 10 11  1  0
 10 12  1  0
  4 13  1  0
 13 14  2  0
 14  2  1  0
 14 15  1  0
 15 16  2  0
 16 17  1  0
 17 18  2  0
 18 19  1  0
 19 20  1  0
 20 21  2  0
 20 22  1  0
 22 23  1  0
 23 24  2  0
 24 25  1  0
 25 26  2  0
 26 27  1  0
 27 28  1  0
 28 29  1  0
 29 30  1  0
 27 31  1  0
 31 32  1  0
 32 33  1  0
 26 34  1  0
 34 35  2  0
 35 23  1  0
 19 36  2  0
 36 37  1  0
 37 38  2  0
 38 17  1  0
 38 39  1  0
 39 15  1  0
M  CHG  1  10   1
M  END
> <Smiles>
Cc1ccc(S(=O)(=O)O)cc1.Cc1ccc(S(=O)(=O)[O-])cc1.Cn1cc(NC(=O)CC[S+](C)C)cc1-c1nc2cc(C(=O)Nc3ccc(N(CCCl)CCCl)cc3)ccc2[nH]1

> <ID>
CHEMBL1956190

> <standard_value>
710

> <IC50_uM>
0.71

> <Activity>
Yes

> <pIC50>
6.148741651

> <BCI>
1

> <RemovedSalts>
Cc1ccc(cc1)S(=O)(=O)O
Cc1ccc(cc1)S(=O)(=O)O

$$$$

  SciTegic03012415362D

 64 67  0  0  1  0            999 V2000
  -13.0244   -2.8941    0.0000 C   0  0
  -11.6779   -2.2332    0.0000 C   0  0
  -10.4310   -3.0685    0.0000 C   0  0
   -9.0837   -2.4072    0.0000 C   0  0
   -7.8368   -3.2425    0.0000 C   0  0
   -6.4896   -2.5812    0.0000 C   0  0
   -5.2427   -3.4165    0.0000 C   0  0
   -3.8954   -2.7551    0.0000 C   0  0
   -3.7950   -1.2585    0.0000 O   0  0
   -2.6485   -3.5905    0.0000 O   0  0
   -1.3000   -2.9300    0.0000 C   0  0  1  0  0  0
    0.0400   -3.8000    0.0000 C   0  0
    0.0431   -5.2985    0.0000 C   0  0
    1.3439   -6.0470    0.0000 C   0  0
    2.6417   -5.2948    0.0000 O   0  0
    1.3470   -7.5478    0.0000 O   0  0
    2.6471   -8.2960    0.0000 C   0  0
    1.3800   -2.9300    0.0000 C   0  0
    1.3800   -1.5600    0.0000 C   0  0  1  0  0  0
    2.7200   -0.6900    0.0000 C   0  0
    4.0900   -1.5600    0.0000 C   0  0  2  0  0  0
    4.1052   -3.0584    0.0000 C   0  0  1  0  0  0
    5.4121   -3.7947    0.0000 C   0  0
    2.8144   -3.8225    0.0000 O   0  0
    5.4300   -0.6900    0.0000 O   0  0
    5.4300    0.7900    0.0000 C   0  0
    6.7501    1.5024    0.0000 O   0  0
    4.0900    1.6700    0.0000 C   0  0
    2.7200    0.7900    0.0000 C   0  0  2  0  0  0
    2.7150   -0.2100    0.0000 O   0  0
    1.3800    1.6700    0.0000 C   0  0
    1.3800    3.0400    0.0000 C   0  0  2  0  0  0
    2.7200    3.9200    0.0000 C   0  0
    2.7200    5.2900    0.0000 C   0  0  2  0  0  0
    4.0738    5.9397    0.0000 O   0  0
    5.3125    5.0923    0.0000 C   0  0
    5.1975    3.5967    0.0000 C   0  0
    6.6654    5.7400    0.0000 O   0  0
    1.3800    6.1700    0.0000 C   0  0
    0.5047    6.6536    0.0000 C   0  0
    2.6928    6.8956    0.0000 C   0  0
    0.0400    5.2900    0.0000 C   0  0  2  0  0  0
    0.0400    6.2900    0.0000 O   0  0
   -1.3000    6.1700    0.0000 C   0  0
   -2.6400    5.2900    0.0000 C   0  0  2  0  0  0
   -3.9900    6.1700    0.0000 C   0  0
   -5.3300    5.2900    0.0000 C   0  0
   -6.6838    5.9397    0.0000 C   0  0
   -7.9225    5.0923    0.0000 C   0  0
   -7.8075    3.5967    0.0000 O   0  0
   -9.2761    5.7404    0.0000 O   0  0
  -10.5141    4.8934    0.0000 C   0  0
   -5.3300    3.9200    0.0000 C   0  0
   -3.9900    3.0400    0.0000 C   0  0  2  0  0  0
   -3.9900    1.6700    0.0000 C   0  0
   -2.6400    0.7900    0.0000 C   0  0
   -2.6400   -0.6900    0.0000 C   0  0
   -2.6403   -1.6900    0.0000 C   0  0
   -3.8984    0.1263    0.0000 C   0  0
   -1.3000   -1.5600    0.0000 C   0  0  1  0  0  0
   -2.1788   -2.0372    0.0000 O   0  0
    0.0400   -0.6900    0.0000 O   0  0
   -2.6400    3.9200    0.0000 O   0  0
    0.0400    3.9200    0.0000 O   0  0
  1  2  1  0
  2  3  1  0
  3  4  1  0
  4  5  2  0
  5  6  1  0
  6  7  2  0
  7  8  1  0
  8  9  2  0
  8 10  1  0
 11 10  1  6
 11 12  1  0
 12 13  2  0
 13 14  1  0
 14 15  2  0
 14 16  1  0
 16 17  1  0
 12 18  1  0
 19 18  1  6
 19 20  1  0
 21 20  1  1
 21 22  1  0
 22 23  1  1
 22 24  1  0
 21 25  1  0
 25 26  1  0
 26 27  2  0
 26 28  1  0
 28 29  1  0
 29 30  1  6
 29 31  1  0
 32 31  1  1
 32 33  1  0
 33 34  1  0
 34 35  1  1
 35 36  1  0
 36 37  1  0
 36 38  2  0
 34 39  1  0
 39 40  1  0
 39 41  1  0
 39 42  1  0
 42 43  1  6
 42 44  1  0
 45 44  1  1
 45 46  1  0
 46 47  1  0
 47 48  2  0
 48 49  1  0
 49 50  2  0
 49 51  1  0
 51 52  1  0
 47 53  1  0
 54 53  1  1
 54 55  1  0
 55 56  2  0
 56 57  1  0
 57 58  1  0
 57 59  1  0
 57 60  1  0
 60 11  1  0
 60 61  1  1
 60 62  1  0
 62 19  1  0
 54 63  1  0
 63 45  1  0
 42 64  1  0
 64 32  1  0
M  END
> <Smiles>
CCC/C=C/C=C/C(=O)O[C@H]1/C(=C/C(=O)OC)C[C@H]2C[C@H]([C@@H](C)O)OC(=O)C[C@H](O)C[C@@H]3C[C@H](OC(C)=O)C(C)(C)[C@](O)(C[C@@H]4C/C(=C/C(=O)OC)C[C@H](/C=C/C(C)(C)[C@]1(O)O2)O4)O3

> <ID>
CHEMBL449158

> <standard_value>
747.04

> <IC50_uM>
0.74704

> <Activity>
Yes

> <pIC50>
6.126656143

> <BCI>
1

$$$$

  SciTegic03012415362D

 21 22  0  0  1  0            999 V2000
    7.7996   -1.4883    0.0000 C   0  0
    6.4990   -0.7409    0.0000 C   0  0
    6.4964    0.7591    0.0000 C   0  0
    5.2003   -1.4932    0.0000 C   0  0
    3.8990   -0.7455    0.0000 C   0  0
    2.6003   -1.4977    0.0000 C   0  0  1  0  0  0
    2.6030   -2.9977    0.0000 O   0  0
    1.2990   -0.7500    0.0000 C   0  0
    1.2990    0.7500    0.0000 C   0  0
    0.0000    1.5000    0.0000 C   0  0
    0.0000    3.0000    0.0000 O   0  0
   -1.2990    0.7500    0.0000 C   0  0
   -2.5981    1.5000    0.0000 C   0  0
   -2.5981    3.0000    0.0000 O   0  0
   -3.8971    0.7500    0.0000 C   0  0
   -3.8971   -0.7500    0.0000 C   0  0
   -2.5981   -1.5000    0.0000 C   0  0
   -2.5981   -3.0000    0.0000 O   0  0
   -1.2990   -0.7500    0.0000 C   0  0
    0.0000   -1.5000    0.0000 C   0  0
    0.0000   -3.0000    0.0000 O   0  0
  1  2  1  0
  2  3  1  0
  2  4  2  0
  4  5  1  0
  5  6  1  0
  6  7  1  1
  6  8  1  0
  8  9  2  0
  9 10  1  0
 10 11  2  0
 10 12  1  0
 12 13  2  0
 13 14  1  0
 13 15  1  0
 15 16  2  0
 16 17  1  0
 17 18  1  0
 17 19  2  0
 19 12  1  0
 19 20  1  0
 20  8  1  0
 20 21  2  0
M  END
> <Smiles>
CC(C)=CC[C@@H](O)C1=CC(=O)c2c(O)ccc(O)c2C1=O

> <ID>
CHEMBL9470

> <standard_value>
856.82

> <IC50_uM>
0.85682

> <Activity>
Yes

> <pIC50>
6.067110405

> <BCI>
1

$$$$

  SciTegic03012415362D

 45 51  0  0  0  0            999 V2000
   11.6704   -8.2801    0.0000 C   0  0
   10.3753   -7.5233    0.0000 C   0  0
   10.3822   -6.0225    0.0000 C   0  0
   11.6850   -5.2789    0.0000 O   0  0
    9.0864   -5.2653    0.0000 N   0  0
    9.0912   -3.7653    0.0000 C   0  0
    7.7945   -3.0112    0.0000 C   0  0
    6.4930   -3.7570    0.0000 N   0  0
    5.1945   -3.0045    0.0000 C   0  0
    5.1969   -1.5045    0.0000 C   0  0
    3.8991   -0.7525    0.0000 C   0  0
    2.5987   -1.5004    0.0000 C   0  0
    1.2990   -0.7500    0.0000 N   0  0
    0.0000   -1.5000    0.0000 C   0  0
    0.0000   -3.0000    0.0000 O   0  0
   -1.2990   -0.7500    0.0000 C   0  0
   -1.2990    0.7500    0.0000 C   0  0
    0.0000    1.5000    0.0000 C   0  0
    0.0000    3.0000    0.0000 C   0  0
    1.2990    3.7500    0.0000 N   0  0
    2.5981    3.0000    0.0000 C   0  0
    3.8971    3.7500    0.0000 C   0  0
    5.1961    3.0000    0.0000 C   0  0
    5.1961    1.5000    0.0000 C   0  0
    6.4958    0.7496    0.0000 C   0  0
    6.4983   -0.7504    0.0000 C   0  0
    7.7985   -1.4984    0.0000 N   0  0
    9.0964   -0.7463    0.0000 C   0  0
   10.3966   -1.4942    0.0000 C   0  0
   11.6945   -0.7422    0.0000 C   0  0
   11.6921    0.7578    0.0000 C   0  0
   10.3919    1.5057    0.0000 C   0  0
    9.0940    0.7537    0.0000 C   0  0
    7.7938    1.5016    0.0000 C   0  0
    3.8971    0.7500    0.0000 C   0  0
    2.5981    1.5000    0.0000 C   0  0
    1.2990    0.7500    0.0000 C   0  0
    2.5965   -3.0004    0.0000 C   0  0
    3.8943   -3.7525    0.0000 C   0  0
    3.8919   -5.2533    0.0000 C   0  0
    2.5922   -6.0021    0.0000 F   0  0
    5.1900   -6.0050    0.0000 F   0  0
    3.8903   -6.7533    0.0000 F   0  0
    6.4884   -5.2570    0.0000 C   0  0
    7.7850   -6.0111    0.0000 C   0  0
  1  2  1  0
  2  3  1  0
  3  4  2  0
  3  5  1  0
  5  6  1  0
  6  7  1  0
  7  8  1  0
  8  9  1  0
  9 10  2  0
 10 11  1  0
 11 12  2  0
 12 13  1  0
 13 14  1  0
 14 15  2  0
 14 16  1  0
 16 17  2  0
 17 18  1  0
 18 19  2  0
 19 20  1  0
 20 21  2  0
 21 22  1  0
 22 23  2  0
 23 24  1  0
 24 25  1  0
 25 26  2  0
 26 27  1  0
 27 28  2  0
 28 29  1  0
 29 30  2  0
 30 31  1  0
 31 32  2  0
 32 33  1  0
 33 28  1  0
 33 34  2  0
 34 25  1  0
 24 35  2  0
 35 36  1  0
 36 21  1  0
 36 37  2  0
 37 18  1  0
 37 13  1  0
 12 38  1  0
 38 39  2  0
 39  9  1  0
 39 40  1  0
 40 41  1  0
 40 42  1  0
 40 43  1  0
  8 44  1  0
 44 45  1  0
 45  5  1  0
M  END
> <Smiles>
CCC(=O)N1CCN(c2ccc(-n3c(=O)ccc4cnc5ccc(-c6cnc7ccccc7c6)cc5c43)cc2C(F)(F)F)CC1

> <ID>
CHEMBL1256459

> <standard_value>
983.96

> <IC50_uM>
0.98396

> <Activity>
Yes

> <pIC50>
6.007022556

> <BCI>
1

$$$$

  SciTegic03012415362D

 30 33  0  0  1  0            999 V2000
    2.5951   -3.0031    0.0000 C   0  0
    2.5973   -1.5031    0.0000 O   0  0
    1.2990   -0.7500    0.0000 C   0  0
    1.2990    0.7500    0.0000 C   0  0
    0.0000    1.5000    0.0000 C   0  0
   -1.2990    0.7500    0.0000 C   0  0
   -2.5987    1.5004    0.0000 C   0  0  2  0  0  0
   -2.9445    2.9229    0.0000 C   0  0  3  0  0  0
   -2.1800    4.2143    0.0000 C   0  0
   -0.7630    4.6269    0.0000 C   0  0
   -0.7351    6.1266    0.0000 C   0  0
   -2.1529    6.6166    0.0000 C   0  0
   -3.0569    5.4197    0.0000 S   0  0
   -4.3928    2.5323    0.0000 C   0  0
   -5.6930    3.2803    0.0000 O   0  0
   -4.0022    1.0841    0.0000 N   0  0
   -4.7342   -0.2260    0.0000 C   0  0
   -4.2317   -1.6265    0.0000 C   0  0
   -5.2020   -2.7704    0.0000 C   0  0
   -4.6933   -4.1824    0.0000 O   0  0
   -3.2171   -4.4486    0.0000 C   0  0
   -6.6778   -2.5021    0.0000 C   0  0
   -7.6510   -3.6447    0.0000 O   0  0
   -9.1264   -3.3743    0.0000 C   0  0
   -7.1834   -1.0899    0.0000 C   0  0
   -8.6594   -0.8184    0.0000 O   0  0
   -9.1630    0.5946    0.0000 C   0  0
   -6.2131    0.0541    0.0000 C   0  0
   -1.2990   -0.7500    0.0000 C   0  0
    0.0000   -1.5000    0.0000 C   0  0
  1  2  1  0
  2  3  1  0
  3  4  2  0
  4  5  1  0
  5  6  2  0
  7  6  1  1
  7  8  1  0
  8  9  1  4
  9 10  2  0
 10 11  1  0
 11 12  2  0
 12 13  1  0
 13  9  1  0
  8 14  1  0
 14 15  2  0
 14 16  1  0
 16  7  1  0
 16 17  1  0
 17 18  2  0
 18 19  1  0
 19 20  1  0
 20 21  1  0
 19 22  2  0
 22 23  1  0
 23 24  1  0
 22 25  1  0
 25 26  1  0
 26 27  1  0
 25 28  2  0
 28 17  1  0
  6 29  1  0
 29 30  2  0
 30  3  1  0
M  END
> <Smiles>
COc1ccc([C@@H]2C(c3cccs3)C(=O)N2c2cc(OC)c(OC)c(OC)c2)cc1

> <ID>
CHEMBL1766130

> <standard_value>
2.86E-05

> <IC50_uM>
2.86E-08

> <Activity>
Yes

> <pIC50>
13.54363397

> <BCI>
1

$$$$

  SciTegic03012415362D

 55 57  0  0  1  0            999 V2000
   14.9628   -5.2771    0.0000 C   0  0
   13.8401   -4.2824    0.0000 C   0  0
   12.4161   -4.7567    0.0000 C   0  0  2  0  0  0
   12.1156   -6.2263    0.0000 C   0  0
   11.2928   -3.7614    0.0000 C   0  0  1  0  0  0
    9.8684   -4.2341    0.0000 C   0  0  1  0  0  0
    9.5646   -5.7039    0.0000 C   0  0
    8.1402   -6.1766    0.0000 C   0  0
    7.0195   -5.1796    0.0000 O   0  0
    7.8369   -7.6438    0.0000 N   0  0
    8.8406   -8.7585    0.0000 C   0  0
    8.0906  -10.0575    0.0000 C   0  0
    6.6233   -9.7456    0.0000 C   0  0
    6.4855   -8.2648    0.0000 C   0  0  1  0  0  0
    5.1873   -7.5117    0.0000 C   0  0  2  0  0  0
    3.8877   -8.2626    0.0000 O   0  0
    3.8873   -9.7626    0.0000 C   0  0
    5.1894   -6.0109    0.0000 C   0  0  1  0  0  0
    6.4897   -5.2632    0.0000 C   0  0
    3.8912   -5.2578    0.0000 C   0  0
    2.5909   -6.0056    0.0000 O   0  0
    3.8933   -3.7570    0.0000 N   0  0
    2.5951   -3.0039    0.0000 C   0  0  1  0  0  0
    2.5973   -1.5031    0.0000 C   0  0
    1.2990   -0.7500    0.0000 C   0  0
    1.2990    0.7500    0.0000 C   0  0
    0.0000    1.5000    0.0000 C   0  0
   -1.2990    0.7500    0.0000 C   0  0
   -1.2990   -0.7500    0.0000 C   0  0
    0.0000   -1.5000    0.0000 C   0  0
    1.2941   -3.7520    0.0000 C   0  0
   -0.0571   -3.1305    0.0000 N   0  0
   -1.0612   -4.2448    0.0000 C   0  0
   -0.3117   -5.5441    0.0000 C   0  0
    1.1557   -5.2328    0.0000 S   0  0
    8.7491   -3.2342    0.0000 O   0  0
    9.0543   -1.7656    0.0000 C   0  0
   11.5966   -2.2916    0.0000 N   0  0
   10.4759   -1.2946    0.0000 C   0  0
   13.0210   -1.8189    0.0000 C   0  0
   14.1417   -2.8159    0.0000 O   0  0
   13.3248   -0.3491    0.0000 C   0  0  1  0  0  0
   14.7492    0.1236    0.0000 N   0  0
   15.0529    1.5933    0.0000 C   0  0
   13.9323    2.5904    0.0000 O   0  0
   16.4774    2.0661    0.0000 C   0  0  2  0  0  0
   16.7811    3.5358    0.0000 C   0  0
   18.2048    4.0083    0.0000 C   0  0
   15.6605    4.5329    0.0000 C   0  0
   17.6007    1.0708    0.0000 N   0  0
   19.0239    1.5448    0.0000 C   0  0
   17.3002   -0.3988    0.0000 C   0  0
   12.2055    0.6508    0.0000 C   0  0
   12.5107    2.1194    0.0000 C   0  0
   10.7809    0.1812    0.0000 C   0  0
  1  2  1  0
  2  3  1  0
  3  4  1  6
  3  5  1  0
  5  6  1  0
  6  7  1  1
  7  8  1  0
  8  9  2  0
  8 10  1  0
 10 11  1  0
 11 12  1  0
 12 13  1  0
 14 13  1  1
 14 10  1  0
 14 15  1  0
 15 16  1  6
 16 17  1  0
 15 18  1  0
 18 19  1  6
 18 20  1  0
 20 21  2  0
 20 22  1  0
 23 22  1  6
 23 24  1  0
 24 25  1  0
 25 26  2  0
 26 27  1  0
 27 28  2  0
 28 29  1  0
 29 30  2  0
 30 25  1  0
 23 31  1  0
 31 32  2  0
 32 33  1  0
 33 34  2  0
 34 35  1  0
 35 31  1  0
  6 36  1  0
 36 37  1  0
  5 38  1  1
 38 39  1  0
 38 40  1  0
 40 41  2  0
 40 42  1  0
 42 43  1  6
 43 44  1  0
 44 45  2  0
 46 44  1  6
 46 47  1  0
 47 48  1  0
 47 49  1  0
 46 50  1  0
 50 51  1  0
 50 52  1  0
 42 53  1  0
 53 54  1  0
 53 55  1  0
M  END
> <Smiles>
CC[C@H](C)[C@@H]([C@@H](CC(=O)N1CCC[C@H]1[C@H](OC)[C@@H](C)C(=O)N[C@@H](Cc1ccccc1)c1nccs1)OC)N(C)C(=O)[C@@H](NC(=O)[C@H](C(C)C)N(C)C)C(C)C

> <ID>
CHEMBL39541

> <standard_value>
0.006

> <IC50_uM>
6.00E-06

> <Activity>
Yes

> <pIC50>
11.22184875

> <BCI>
1

$$$$

  SciTegic03012415362D

 28 32  0  0  0  0            999 V2000
    6.4924   -3.7566    0.0000 C   0  0
    5.1945   -3.0045    0.0000 C   0  0
    5.1969   -1.5045    0.0000 C   0  0
    3.8991   -0.7525    0.0000 C   0  0
    2.5987   -1.5004    0.0000 C   0  0
    1.2990   -0.7500    0.0000 C   0  0
    1.2990    0.7500    0.0000 C   0  0
    2.5981    1.5000    0.0000 S   0  0
    2.5981    3.0000    0.0000 C   0  0
    1.2990    3.7500    0.0000 C   0  0
    1.2990    5.2500    0.0000 C   0  0
    0.0000    6.0000    0.0000 C   0  0
   -1.2991    5.2500    0.0000 C   0  0
   -1.2991    3.7500    0.0000 C   0  0
    0.0000    3.0000    0.0000 C   0  0
    0.0000    1.5000    0.0000 C   0  0
   -1.2990    0.7500    0.0000 O   0  0
   -1.2990   -0.7500    0.0000 N   0  0
    0.0000   -1.5000    0.0000 C   0  0
    0.0000   -3.0008    0.0000 C   0  0
   -1.2978   -3.7529    0.0000 C   0  0
   -1.2955   -5.2529    0.0000 C   0  0
    0.0048   -6.0009    0.0000 C   0  0
    0.0072   -7.5009    0.0000 Cl  0  0
    1.3026   -5.2488    0.0000 C   0  0
    1.3002   -3.7488    0.0000 C   0  0
    2.5965   -3.0004    0.0000 C   0  0
    3.8943   -3.7525    0.0000 C   0  0
  1  2  1  0
  2  3  2  0
  3  4  1  0
  4  5  2  0
  5  6  1  0
  6  7  2  0
  7  8  1  0
  8  9  1  0
  9 10  2  0
 10 11  1  0
 11 12  2  0
 12 13  1  0
 13 14  2  0
 14 15  1  0
 15 10  1  0
 15 16  2  0
 16  7  1  0
 16 17  1  0
 17 18  1  0
 18 19  2  0
 19  6  1  0
 19 20  1  0
 20 21  2  0
 21 22  1  0
 22 23  2  0
 23 24  1  0
 23 25  1  0
 25 26  2  0
 26 20  1  0
  5 27  1  0
 27 28  2  0
 28  2  1  0
M  END
> <Smiles>
Cc1ccc(C2=C3SC=c4ccccc4=C3ON=C2c2ccc(Cl)cc2)cc1

> <ID>
CHEMBL2298740

> <standard_value>
0.0121

> <IC50_uM>
1.21E-05

> <Activity>
Yes

> <pIC50>
10.91721463

> <BCI>
1

$$$$

  SciTegic03012415362D

 54 56  0  0  1  0            999 V2000
   12.0515  -10.3195    0.0000 C   0  0
   10.6287   -9.8446    0.0000 C   0  0
   10.3275   -8.3743    0.0000 C   0  0  2  0  0  0
   11.4499   -7.3792    0.0000 C   0  0
    8.9039   -7.8991    0.0000 C   0  0  1  0  0  0
    8.6011   -6.4292    0.0000 C   0  0  1  0  0  0
    9.7220   -5.4312    0.0000 C   0  0
    9.4192   -3.9613    0.0000 C   0  0
    7.9954   -3.4893    0.0000 O   0  0
   10.5381   -2.9650    0.0000 N   0  0
   12.0054   -3.2769    0.0000 C   0  0
   12.7554   -1.9778    0.0000 C   0  0
   11.7516   -0.8631    0.0000 C   0  0
   10.4003   -1.4841    0.0000 C   0  0  1  0  0  0
    9.0990   -0.7364    0.0000 C   0  0  2  0  0  0
    9.0994    0.7644    0.0000 O   0  0
   10.3982    1.5148    0.0000 C   0  0
    7.8003   -1.4887    0.0000 C   0  0  1  0  0  0
    7.8029   -2.9887    0.0000 C   0  0
    6.4990   -0.7409    0.0000 C   0  0
    6.4964    0.7591    0.0000 O   0  0
    5.2003   -1.4932    0.0000 N   0  0
    3.8990   -0.7455    0.0000 C   0  0
    2.6003   -1.4977    0.0000 C   0  0
    1.2990   -0.7500    0.0000 C   0  0
    1.2990    0.7500    0.0000 C   0  0
    0.0000    1.5000    0.0000 C   0  0
   -1.2990    0.7500    0.0000 C   0  0
   -1.2990   -0.7500    0.0000 C   0  0
   -2.5981   -1.5000    0.0000 C   0  0
   -2.5981   -3.0000    0.0000 C   0  0
   -1.2990   -3.7500    0.0000 C   0  0
    0.0000   -3.0000    0.0000 N   0  0
    0.0000   -1.5000    0.0000 C   0  0
    7.1755   -5.9598    0.0000 O   0  0
    6.0562   -6.9585    0.0000 C   0  0
    7.7829   -8.8971    0.0000 N   0  0
    6.3591   -8.4251    0.0000 C   0  0
    8.0858  -10.3670    0.0000 C   0  0
    9.5096  -10.8390    0.0000 O   0  0
    6.9648  -11.3650    0.0000 C   0  0  1  0  0  0
    7.2676  -12.8349    0.0000 N   0  0
    6.1467  -13.8329    0.0000 C   0  0
    4.7228  -13.3609    0.0000 O   0  0
    6.4495  -15.3028    0.0000 C   0  0  2  0  0  0
    5.3285  -16.3008    0.0000 C   0  0
    5.6312  -17.7699    0.0000 C   0  0
    3.9047  -15.8288    0.0000 C   0  0
    7.8731  -15.7780    0.0000 N   0  0
    8.1741  -17.2475    0.0000 C   0  0
    8.9955  -14.7829    0.0000 C   0  0
    5.5392  -10.8956    0.0000 C   0  0
    4.4200  -11.8943    0.0000 C   0  0
    5.2335   -9.4271    0.0000 C   0  0
  1  2  1  0
  2  3  1  0
  3  4  1  1
  3  5  1  0
  5  6  1  0
  6  7  1  6
  7  8  1  0
  8  9  2  0
  8 10  1  0
 10 11  1  0
 11 12  1  0
 12 13  1  0
 14 13  1  6
 14 10  1  0
 14 15  1  0
 15 16  1  1
 16 17  1  0
 15 18  1  0
 18 19  1  1
 18 20  1  0
 20 21  2  0
 20 22  1  0
 22 23  1  0
 23 24  1  0
 24 25  1  0
 25 26  2  0
 26 27  1  0
 27 28  2  0
 28 29  1  0
 29 30  2  0
 30 31  1  0
 31 32  2  0
 32 33  1  0
 33 34  2  0
 34 25  1  0
 34 29  1  0
  6 35  1  0
 35 36  1  0
  5 37  1  6
 37 38  1  0
 37 39  1  0
 39 40  2  0
 39 41  1  0
 41 42  1  1
 42 43  1  0
 43 44  2  0
 45 43  1  1
 45 46  1  0
 46 47  1  0
 46 48  1  0
 45 49  1  0
 49 50  1  0
 49 51  1  0
 41 52  1  0
 52 53  1  0
 52 54  1  0
M  END
> <Smiles>
CC[C@H](C)[C@@H]([C@@H](CC(=O)N1CCC[C@H]1[C@H](OC)[C@@H](C)C(=O)NCCc1cccc2cccnc12)OC)N(C)C(=O)[C@@H](NC(=O)[C@H](C(C)C)N(C)C)C(C)C

> <ID>
CHEMBL4100962

> <standard_value>
0.03

> <IC50_uM>
3.00E-05

> <Activity>
Yes

> <pIC50>
10.52287875

> <BCI>
1

$$$$

  SciTegic03012415362D

 53 55  0  0  1  0            999 V2000
   12.0515  -10.3195    0.0000 C   0  0
   10.6287   -9.8446    0.0000 C   0  0
   10.3275   -8.3743    0.0000 C   0  0  2  0  0  0
   11.4499   -7.3792    0.0000 C   0  0
    8.9039   -7.8991    0.0000 C   0  0  1  0  0  0
    8.6011   -6.4292    0.0000 C   0  0  1  0  0  0
    9.7220   -5.4312    0.0000 C   0  0
    9.4192   -3.9613    0.0000 C   0  0
    7.9954   -3.4893    0.0000 O   0  0
   10.5381   -2.9650    0.0000 N   0  0
   12.0054   -3.2769    0.0000 C   0  0
   12.7554   -1.9778    0.0000 C   0  0
   11.7516   -0.8631    0.0000 C   0  0
   10.4003   -1.4841    0.0000 C   0  0  1  0  0  0
    9.0990   -0.7364    0.0000 C   0  0  2  0  0  0
    9.0994    0.7644    0.0000 O   0  0
   10.3982    1.5148    0.0000 C   0  0
    7.8003   -1.4887    0.0000 C   0  0  1  0  0  0
    7.8029   -2.9887    0.0000 C   0  0
    6.4990   -0.7409    0.0000 C   0  0
    6.4964    0.7591    0.0000 O   0  0
    5.2003   -1.4932    0.0000 N   0  0
    3.8990   -0.7455    0.0000 C   0  0
    2.6003   -1.4977    0.0000 C   0  0
    1.2990   -0.7500    0.0000 C   0  0
    1.2990    0.7500    0.0000 C   0  0
    0.0000    1.5000    0.0000 C   0  0
   -1.2990    0.7500    0.0000 C   0  0
   -1.2990   -0.7500    0.0000 C   0  0
   -2.5981   -1.5000    0.0000 C   0  0
   -2.5981   -3.0000    0.0000 C   0  0
   -1.2990   -3.7500    0.0000 C   0  0
    0.0000   -3.0000    0.0000 N   0  0
    0.0000   -1.5000    0.0000 C   0  0
    7.1755   -5.9598    0.0000 O   0  0
    6.0562   -6.9585    0.0000 C   0  0
    7.7829   -8.8971    0.0000 N   0  0
    6.3591   -8.4251    0.0000 C   0  0
    8.0858  -10.3670    0.0000 C   0  0
    9.5096  -10.8390    0.0000 O   0  0
    6.9648  -11.3650    0.0000 C   0  0  1  0  0  0
    7.2676  -12.8349    0.0000 N   0  0
    6.1467  -13.8329    0.0000 C   0  0
    4.7228  -13.3609    0.0000 O   0  0
    6.4495  -15.3028    0.0000 C   0  0  1  0  0  0
    5.3285  -16.3008    0.0000 N   0  0
    5.6312  -17.7699    0.0000 C   0  0
    7.8731  -15.7780    0.0000 C   0  0
    8.1741  -17.2475    0.0000 C   0  0
    8.9955  -14.7829    0.0000 C   0  0
    5.5392  -10.8956    0.0000 C   0  0
    4.4200  -11.8943    0.0000 C   0  0
    5.2335   -9.4271    0.0000 C   0  0
  1  2  1  0
  2  3  1  0
  3  4  1  1
  3  5  1  0
  5  6  1  0
  6  7  1  6
  7  8  1  0
  8  9  2  0
  8 10  1  0
 10 11  1  0
 11 12  1  0
 12 13  1  0
 14 13  1  6
 14 10  1  0
 14 15  1  0
 15 16  1  1
 16 17  1  0
 15 18  1  0
 18 19  1  1
 18 20  1  0
 20 21  2  0
 20 22  1  0
 22 23  1  0
 23 24  1  0
 24 25  1  0
 25 26  2  0
 26 27  1  0
 27 28  2  0
 28 29  1  0
 29 30  2  0
 30 31  1  0
 31 32  2  0
 32 33  1  0
 33 34  2  0
 34 25  1  0
 34 29  1  0
  6 35  1  0
 35 36  1  0
  5 37  1  6
 37 38  1  0
 37 39  1  0
 39 40  2  0
 39 41  1  0
 41 42  1  1
 42 43  1  0
 43 44  2  0
 43 45  1  0
 45 46  1  6
 46 47  1  0
 45 48  1  0
 48 49  1  0
 48 50  1  0
 41 51  1  0
 51 52  1  0
 51 53  1  0
M  END
> <Smiles>
CC[C@H](C)[C@@H]([C@@H](CC(=O)N1CCC[C@H]1[C@H](OC)[C@@H](C)C(=O)NCCc1cccc2cccnc12)OC)N(C)C(=O)[C@@H](NC(=O)[C@@H](NC)C(C)C)C(C)C

> <ID>
CHEMBL4166440

> <standard_value>
0.06

> <IC50_uM>
6.00E-05

> <Activity>
Yes

> <pIC50>
10.22184875

> <BCI>
1

$$$$

  SciTegic03012415362D

 54 56  0  0  1  0            999 V2000
   14.9628   -5.2771    0.0000 C   0  0
   13.8401   -4.2824    0.0000 C   0  0
   12.4161   -4.7567    0.0000 C   0  0  2  0  0  0
   12.1156   -6.2263    0.0000 C   0  0
   11.2928   -3.7614    0.0000 C   0  0  1  0  0  0
    9.8684   -4.2341    0.0000 C   0  0  1  0  0  0
    9.5646   -5.7039    0.0000 C   0  0
    8.1402   -6.1766    0.0000 C   0  0
    7.0195   -5.1796    0.0000 O   0  0
    7.8369   -7.6438    0.0000 N   0  0
    8.8406   -8.7585    0.0000 C   0  0
    8.0906  -10.0575    0.0000 C   0  0
    6.6233   -9.7456    0.0000 C   0  0
    6.4855   -8.2648    0.0000 C   0  0  1  0  0  0
    5.1873   -7.5117    0.0000 C   0  0  2  0  0  0
    3.8877   -8.2626    0.0000 O   0  0
    3.8873   -9.7626    0.0000 C   0  0
    5.1894   -6.0109    0.0000 C   0  0  1  0  0  0
    6.4897   -5.2632    0.0000 C   0  0
    3.8912   -5.2578    0.0000 C   0  0
    2.5909   -6.0056    0.0000 O   0  0
    3.8933   -3.7570    0.0000 N   0  0
    2.5951   -3.0039    0.0000 C   0  0
    2.5973   -1.5031    0.0000 C   0  0
    1.2990   -0.7500    0.0000 C   0  0
    1.2990    0.7500    0.0000 C   0  0
    0.0000    1.5000    0.0000 C   0  0
   -1.2990    0.7500    0.0000 C   0  0
   -2.5981    1.5000    0.0000 C   0  0
   -3.8971    0.7500    0.0000 C   0  0
   -3.8971   -0.7500    0.0000 N   0  0
   -2.5981   -1.5000    0.0000 C   0  0
   -1.2990   -0.7500    0.0000 C   0  0
    0.0000   -1.5000    0.0000 C   0  0
    8.7491   -3.2342    0.0000 O   0  0
    9.0543   -1.7656    0.0000 C   0  0
   11.5966   -2.2916    0.0000 N   0  0
   10.4759   -1.2946    0.0000 C   0  0
   13.0210   -1.8189    0.0000 C   0  0
   14.1417   -2.8159    0.0000 O   0  0
   13.3248   -0.3491    0.0000 C   0  0  1  0  0  0
   14.7492    0.1236    0.0000 N   0  0
   15.0529    1.5933    0.0000 C   0  0
   13.9323    2.5904    0.0000 O   0  0
   16.4774    2.0661    0.0000 C   0  0  2  0  0  0
   16.7811    3.5358    0.0000 C   0  0
   18.2048    4.0083    0.0000 C   0  0
   15.6605    4.5329    0.0000 C   0  0
   17.6007    1.0708    0.0000 N   0  0
   19.0239    1.5448    0.0000 C   0  0
   17.3002   -0.3988    0.0000 C   0  0
   12.2055    0.6508    0.0000 C   0  0
   12.5107    2.1194    0.0000 C   0  0
   10.7809    0.1812    0.0000 C   0  0
  1  2  1  0
  2  3  1  0
  3  4  1  6
  3  5  1  0
  5  6  1  0
  6  7  1  1
  7  8  1  0
  8  9  2  0
  8 10  1  0
 10 11  1  0
 11 12  1  0
 12 13  1  0
 14 13  1  1
 14 10  1  0
 14 15  1  0
 15 16  1  6
 16 17  1  0
 15 18  1  0
 18 19  1  6
 18 20  1  0
 20 21  2  0
 20 22  1  0
 22 23  1  0
 23 24  1  0
 24 25  1  0
 25 26  2  0
 26 27  1  0
 27 28  2  0
 28 29  1  0
 29 30  2  0
 30 31  1  0
 31 32  2  0
 32 33  1  0
 33 28  1  0
 33 34  2  0
 34 25  1  0
  6 35  1  0
 35 36  1  0
  5 37  1  1
 37 38  1  0
 37 39  1  0
 39 40  2  0
 39 41  1  0
 41 42  1  6
 42 43  1  0
 43 44  2  0
 45 43  1  6
 45 46  1  0
 46 47  1  0
 46 48  1  0
 45 49  1  0
 49 50  1  0
 49 51  1  0
 41 52  1  0
 52 53  1  0
 52 54  1  0
M  END
> <Smiles>
CC[C@H](C)[C@@H]([C@@H](CC(=O)N1CCC[C@H]1[C@H](OC)[C@@H](C)C(=O)NCCc1ccc2ccncc2c1)OC)N(C)C(=O)[C@@H](NC(=O)[C@H](C(C)C)N(C)C)C(C)C

> <ID>
CHEMBL4173290

> <standard_value>
0.068

> <IC50_uM>
6.80E-05

> <Activity>
Yes

> <pIC50>
10.16749109

> <BCI>
1

$$$$

  SciTegic03012415362D

 54 56  0  0  1  0            999 V2000
   12.0515  -10.3195    0.0000 C   0  0
   10.6287   -9.8446    0.0000 C   0  0
   10.3275   -8.3743    0.0000 C   0  0  2  0  0  0
   11.4499   -7.3792    0.0000 C   0  0
    8.9039   -7.8991    0.0000 C   0  0  1  0  0  0
    8.6011   -6.4292    0.0000 C   0  0  1  0  0  0
    9.7220   -5.4312    0.0000 C   0  0
    9.4192   -3.9613    0.0000 C   0  0
    7.9954   -3.4893    0.0000 O   0  0
   10.5381   -2.9650    0.0000 N   0  0
   12.0054   -3.2769    0.0000 C   0  0
   12.7554   -1.9778    0.0000 C   0  0
   11.7516   -0.8631    0.0000 C   0  0
   10.4003   -1.4841    0.0000 C   0  0  1  0  0  0
    9.0990   -0.7364    0.0000 C   0  0  2  0  0  0
    9.0994    0.7644    0.0000 O   0  0
   10.3982    1.5148    0.0000 C   0  0
    7.8003   -1.4887    0.0000 C   0  0  1  0  0  0
    7.8029   -2.9887    0.0000 C   0  0
    6.4990   -0.7409    0.0000 C   0  0
    6.4964    0.7591    0.0000 O   0  0
    5.2003   -1.4932    0.0000 N   0  0
    3.8990   -0.7455    0.0000 C   0  0
    2.6003   -1.4977    0.0000 C   0  0
    1.2990   -0.7500    0.0000 C   0  0
    1.2990    0.7500    0.0000 C   0  0
    0.0000    1.5000    0.0000 C   0  0
   -1.2990    0.7500    0.0000 C   0  0
   -1.2990   -0.7500    0.0000 C   0  0
   -2.5981   -1.5000    0.0000 C   0  0
   -2.5981   -3.0000    0.0000 C   0  0
   -1.2990   -3.7500    0.0000 N   0  0
    0.0000   -3.0000    0.0000 C   0  0
    0.0000   -1.5000    0.0000 C   0  0
    7.1755   -5.9598    0.0000 O   0  0
    6.0562   -6.9585    0.0000 C   0  0
    7.7829   -8.8971    0.0000 N   0  0
    6.3591   -8.4251    0.0000 C   0  0
    8.0858  -10.3670    0.0000 C   0  0
    9.5096  -10.8390    0.0000 O   0  0
    6.9648  -11.3650    0.0000 C   0  0  1  0  0  0
    7.2676  -12.8349    0.0000 N   0  0
    6.1467  -13.8329    0.0000 C   0  0
    4.7228  -13.3609    0.0000 O   0  0
    6.4495  -15.3028    0.0000 C   0  0  2  0  0  0
    5.3285  -16.3008    0.0000 C   0  0
    5.6312  -17.7699    0.0000 C   0  0
    3.9047  -15.8288    0.0000 C   0  0
    7.8731  -15.7780    0.0000 N   0  0
    8.1741  -17.2475    0.0000 C   0  0
    8.9955  -14.7829    0.0000 C   0  0
    5.5392  -10.8956    0.0000 C   0  0
    4.4200  -11.8943    0.0000 C   0  0
    5.2335   -9.4271    0.0000 C   0  0
  1  2  1  0
  2  3  1  0
  3  4  1  1
  3  5  1  0
  5  6  1  0
  6  7  1  6
  7  8  1  0
  8  9  2  0
  8 10  1  0
 10 11  1  0
 11 12  1  0
 12 13  1  0
 14 13  1  6
 14 10  1  0
 14 15  1  0
 15 16  1  1
 16 17  1  0
 15 18  1  0
 18 19  1  1
 18 20  1  0
 20 21  2  0
 20 22  1  0
 22 23  1  0
 23 24  1  0
 24 25  1  0
 25 26  2  0
 26 27  1  0
 27 28  2  0
 28 29  1  0
 29 30  2  0
 30 31  1  0
 31 32  2  0
 32 33  1  0
 33 34  2  0
 34 25  1  0
 34 29  1  0
  6 35  1  0
 35 36  1  0
  5 37  1  6
 37 38  1  0
 37 39  1  0
 39 40  2  0
 39 41  1  0
 41 42  1  1
 42 43  1  0
 43 44  2  0
 45 43  1  1
 45 46  1  0
 46 47  1  0
 46 48  1  0
 45 49  1  0
 49 50  1  0
 49 51  1  0
 41 52  1  0
 52 53  1  0
 52 54  1  0
M  END
> <Smiles>
CC[C@H](C)[C@@H]([C@@H](CC(=O)N1CCC[C@H]1[C@H](OC)[C@@H](C)C(=O)NCCc1cccc2ccncc12)OC)N(C)C(=O)[C@@H](NC(=O)[C@H](C(C)C)N(C)C)C(C)C

> <ID>
CHEMBL4171741

> <standard_value>
0.07

> <IC50_uM>
7.00E-05

> <Activity>
Yes

> <pIC50>
10.15490196

> <BCI>
1

$$$$

  SciTegic03012415362D

 53 55  0  0  1  0            999 V2000
   12.0515  -10.3195    0.0000 C   0  0
   10.6287   -9.8446    0.0000 C   0  0
   10.3275   -8.3743    0.0000 C   0  0  2  0  0  0
   11.4499   -7.3792    0.0000 C   0  0
    8.9039   -7.8991    0.0000 C   0  0  1  0  0  0
    8.6011   -6.4292    0.0000 C   0  0  1  0  0  0
    9.7220   -5.4312    0.0000 C   0  0
    9.4192   -3.9613    0.0000 C   0  0
    7.9954   -3.4893    0.0000 O   0  0
   10.5381   -2.9650    0.0000 N   0  0
   12.0054   -3.2769    0.0000 C   0  0
   12.7554   -1.9778    0.0000 C   0  0
   11.7516   -0.8631    0.0000 C   0  0
   10.4003   -1.4841    0.0000 C   0  0  1  0  0  0
    9.0990   -0.7364    0.0000 C   0  0  2  0  0  0
    9.0994    0.7644    0.0000 O   0  0
   10.3982    1.5148    0.0000 C   0  0
    7.8003   -1.4887    0.0000 C   0  0  1  0  0  0
    7.8029   -2.9887    0.0000 C   0  0
    6.4990   -0.7409    0.0000 C   0  0
    6.4964    0.7591    0.0000 O   0  0
    5.2003   -1.4932    0.0000 N   0  0
    3.8990   -0.7455    0.0000 C   0  0
    2.6003   -1.4977    0.0000 C   0  0
    1.2990   -0.7500    0.0000 C   0  0
    1.2990    0.7500    0.0000 C   0  0
    0.0000    1.5000    0.0000 C   0  0
   -1.2990    0.7500    0.0000 C   0  0
   -1.2990   -0.7500    0.0000 C   0  0
   -2.5981   -1.5000    0.0000 C   0  0
   -2.5981   -3.0000    0.0000 C   0  0
   -1.2990   -3.7500    0.0000 N   0  0
    0.0000   -3.0000    0.0000 C   0  0
    0.0000   -1.5000    0.0000 C   0  0
    7.1755   -5.9598    0.0000 O   0  0
    6.0562   -6.9585    0.0000 C   0  0
    7.7829   -8.8971    0.0000 N   0  0
    6.3591   -8.4251    0.0000 C   0  0
    8.0858  -10.3670    0.0000 C   0  0
    9.5096  -10.8390    0.0000 O   0  0
    6.9648  -11.3650    0.0000 C   0  0  1  0  0  0
    7.2676  -12.8349    0.0000 N   0  0
    6.1467  -13.8329    0.0000 C   0  0
    4.7228  -13.3609    0.0000 O   0  0
    6.4495  -15.3028    0.0000 C   0  0  1  0  0  0
    5.3285  -16.3008    0.0000 N   0  0
    5.6312  -17.7699    0.0000 C   0  0
    7.8731  -15.7780    0.0000 C   0  0
    8.1741  -17.2475    0.0000 C   0  0
    8.9955  -14.7829    0.0000 C   0  0
    5.5392  -10.8956    0.0000 C   0  0
    4.4200  -11.8943    0.0000 C   0  0
    5.2335   -9.4271    0.0000 C   0  0
  1  2  1  0
  2  3  1  0
  3  4  1  1
  3  5  1  0
  5  6  1  0
  6  7  1  6
  7  8  1  0
  8  9  2  0
  8 10  1  0
 10 11  1  0
 11 12  1  0
 12 13  1  0
 14 13  1  6
 14 10  1  0
 14 15  1  0
 15 16  1  1
 16 17  1  0
 15 18  1  0
 18 19  1  1
 18 20  1  0
 20 21  2  0
 20 22  1  0
 22 23  1  0
 23 24  1  0
 24 25  1  0
 25 26  2  0
 26 27  1  0
 27 28  2  0
 28 29  1  0
 29 30  2  0
 30 31  1  0
 31 32  2  0
 32 33  1  0
 33 34  2  0
 34 25  1  0
 34 29  1  0
  6 35  1  0
 35 36  1  0
  5 37  1  6
 37 38  1  0
 37 39  1  0
 39 40  2  0
 39 41  1  0
 41 42  1  1
 42 43  1  0
 43 44  2  0
 43 45  1  0
 45 46  1  6
 46 47  1  0
 45 48  1  0
 48 49  1  0
 48 50  1  0
 41 51  1  0
 51 52  1  0
 51 53  1  0
M  END
> <Smiles>
CC[C@H](C)[C@@H]([C@@H](CC(=O)N1CCC[C@H]1[C@H](OC)[C@@H](C)C(=O)NCCc1cccc2ccncc12)OC)N(C)C(=O)[C@@H](NC(=O)[C@@H](NC)C(C)C)C(C)C

> <ID>
CHEMBL4162972

> <standard_value>
0.135

> <IC50_uM>
0.000135

> <Activity>
Yes

> <pIC50>
9.869666232

> <BCI>
1

$$$$

  SciTegic03012415362D

 54 56  0  0  1  0            999 V2000
   12.0515  -10.3195    0.0000 C   0  0
   10.6287   -9.8446    0.0000 C   0  0
   10.3275   -8.3743    0.0000 C   0  0  2  0  0  0
   11.4499   -7.3792    0.0000 C   0  0
    8.9039   -7.8991    0.0000 C   0  0  1  0  0  0
    8.6011   -6.4292    0.0000 C   0  0  1  0  0  0
    9.7220   -5.4312    0.0000 C   0  0
    9.4192   -3.9613    0.0000 C   0  0
    7.9954   -3.4893    0.0000 O   0  0
   10.5381   -2.9650    0.0000 N   0  0
   12.0054   -3.2769    0.0000 C   0  0
   12.7554   -1.9778    0.0000 C   0  0
   11.7516   -0.8631    0.0000 C   0  0
   10.4003   -1.4841    0.0000 C   0  0  1  0  0  0
    9.0990   -0.7364    0.0000 C   0  0  2  0  0  0
    9.0994    0.7644    0.0000 O   0  0
   10.3982    1.5148    0.0000 C   0  0
    7.8003   -1.4887    0.0000 C   0  0  1  0  0  0
    7.8029   -2.9887    0.0000 C   0  0
    6.4990   -0.7409    0.0000 C   0  0
    6.4964    0.7591    0.0000 O   0  0
    5.2003   -1.4932    0.0000 N   0  0
    3.8990   -0.7455    0.0000 C   0  0
    2.6003   -1.4977    0.0000 C   0  0
    1.2990   -0.7500    0.0000 C   0  0
    1.2990    0.7500    0.0000 C   0  0
    0.0000    1.5000    0.0000 C   0  0
   -1.2990    0.7500    0.0000 C   0  0
   -1.2990   -0.7500    0.0000 C   0  0
   -2.5981   -1.5000    0.0000 N   0  0
   -2.5981   -3.0000    0.0000 C   0  0
   -1.2990   -3.7500    0.0000 C   0  0
    0.0000   -3.0000    0.0000 C   0  0
    0.0000   -1.5000    0.0000 C   0  0
    7.1755   -5.9598    0.0000 O   0  0
    6.0562   -6.9585    0.0000 C   0  0
    7.7829   -8.8971    0.0000 N   0  0
    6.3591   -8.4251    0.0000 C   0  0
    8.0858  -10.3670    0.0000 C   0  0
    9.5096  -10.8390    0.0000 O   0  0
    6.9648  -11.3650    0.0000 C   0  0  1  0  0  0
    7.2676  -12.8349    0.0000 N   0  0
    6.1467  -13.8329    0.0000 C   0  0
    4.7228  -13.3609    0.0000 O   0  0
    6.4495  -15.3028    0.0000 C   0  0  2  0  0  0
    5.3285  -16.3008    0.0000 C   0  0
    5.6312  -17.7699    0.0000 C   0  0
    3.9047  -15.8288    0.0000 C   0  0
    7.8731  -15.7780    0.0000 N   0  0
    8.1741  -17.2475    0.0000 C   0  0
    8.9955  -14.7829    0.0000 C   0  0
    5.5392  -10.8956    0.0000 C   0  0
    4.4200  -11.8943    0.0000 C   0  0
    5.2335   -9.4271    0.0000 C   0  0
  1  2  1  0
  2  3  1  0
  3  4  1  1
  3  5  1  0
  5  6  1  0
  6  7  1  6
  7  8  1  0
  8  9  2  0
  8 10  1  0
 10 11  1  0
 11 12  1  0
 12 13  1  0
 14 13  1  6
 14 10  1  0
 14 15  1  0
 15 16  1  1
 16 17  1  0
 15 18  1  0
 18 19  1  1
 18 20  1  0
 20 21  2  0
 20 22  1  0
 22 23  1  0
 23 24  1  0
 24 25  1  0
 25 26  2  0
 26 27  1  0
 27 28  2  0
 28 29  1  0
 29 30  2  0
 30 31  1  0
 31 32  2  0
 32 33  1  0
 33 34  2  0
 34 25  1  0
 34 29  1  0
  6 35  1  0
 35 36  1  0
  5 37  1  6
 37 38  1  0
 37 39  1  0
 39 40  2  0
 39 41  1  0
 41 42  1  1
 42 43  1  0
 43 44  2  0
 45 43  1  1
 45 46  1  0
 46 47  1  0
 46 48  1  0
 45 49  1  0
 49 50  1  0
 49 51  1  0
 41 52  1  0
 52 53  1  0
 52 54  1  0
M  END
> <Smiles>
CC[C@H](C)[C@@H]([C@@H](CC(=O)N1CCC[C@H]1[C@H](OC)[C@@H](C)C(=O)NCCc1cccc2ncccc12)OC)N(C)C(=O)[C@@H](NC(=O)[C@H](C(C)C)N(C)C)C(C)C

> <ID>
CHEMBL4087440

> <standard_value>
0.146

> <IC50_uM>
0.000146

> <Activity>
Yes

> <pIC50>
9.835647144

> <BCI>
1

$$$$

  SciTegic03012415362D

 53 55  0  0  1  0            999 V2000
   12.0515  -10.3195    0.0000 C   0  0
   10.6287   -9.8446    0.0000 C   0  0
   10.3275   -8.3743    0.0000 C   0  0  2  0  0  0
   11.4499   -7.3792    0.0000 C   0  0
    8.9039   -7.8991    0.0000 C   0  0  1  0  0  0
    8.6011   -6.4292    0.0000 C   0  0  1  0  0  0
    9.7220   -5.4312    0.0000 C   0  0
    9.4192   -3.9613    0.0000 C   0  0
    7.9954   -3.4893    0.0000 O   0  0
   10.5381   -2.9650    0.0000 N   0  0
   12.0054   -3.2769    0.0000 C   0  0
   12.7554   -1.9778    0.0000 C   0  0
   11.7516   -0.8631    0.0000 C   0  0
   10.4003   -1.4841    0.0000 C   0  0  1  0  0  0
    9.0990   -0.7364    0.0000 C   0  0  2  0  0  0
    9.0994    0.7644    0.0000 O   0  0
   10.3982    1.5148    0.0000 C   0  0
    7.8003   -1.4887    0.0000 C   0  0  1  0  0  0
    7.8029   -2.9887    0.0000 C   0  0
    6.4990   -0.7409    0.0000 C   0  0
    6.4964    0.7591    0.0000 O   0  0
    5.2003   -1.4932    0.0000 N   0  0
    3.8990   -0.7455    0.0000 C   0  0
    2.6003   -1.4977    0.0000 C   0  0
    1.2990   -0.7500    0.0000 C   0  0
    1.2990    0.7500    0.0000 C   0  0
    0.0000    1.5000    0.0000 C   0  0
   -1.2990    0.7500    0.0000 N   0  0
   -1.2990   -0.7500    0.0000 C   0  0
   -2.5981   -1.5000    0.0000 C   0  0
   -2.5981   -3.0000    0.0000 C   0  0
   -1.2990   -3.7500    0.0000 C   0  0
    0.0000   -3.0000    0.0000 C   0  0
    0.0000   -1.5000    0.0000 C   0  0
    7.1755   -5.9598    0.0000 O   0  0
    6.0562   -6.9585    0.0000 C   0  0
    7.7829   -8.8971    0.0000 N   0  0
    6.3591   -8.4251    0.0000 C   0  0
    8.0858  -10.3670    0.0000 C   0  0
    9.5096  -10.8390    0.0000 O   0  0
    6.9648  -11.3650    0.0000 C   0  0  1  0  0  0
    7.2676  -12.8349    0.0000 N   0  0
    6.1467  -13.8329    0.0000 C   0  0
    4.7228  -13.3609    0.0000 O   0  0
    6.4495  -15.3028    0.0000 C   0  0  1  0  0  0
    5.3285  -16.3008    0.0000 N   0  0
    5.6312  -17.7699    0.0000 C   0  0
    7.8731  -15.7780    0.0000 C   0  0
    8.1741  -17.2475    0.0000 C   0  0
    8.9955  -14.7829    0.0000 C   0  0
    5.5392  -10.8956    0.0000 C   0  0
    4.4200  -11.8943    0.0000 C   0  0
    5.2335   -9.4271    0.0000 C   0  0
  1  2  1  0
  2  3  1  0
  3  4  1  1
  3  5  1  0
  5  6  1  0
  6  7  1  6
  7  8  1  0
  8  9  2  0
  8 10  1  0
 10 11  1  0
 11 12  1  0
 12 13  1  0
 14 13  1  6
 14 10  1  0
 14 15  1  0
 15 16  1  1
 16 17  1  0
 15 18  1  0
 18 19  1  1
 18 20  1  0
 20 21  2  0
 20 22  1  0
 22 23  1  0
 23 24  1  0
 24 25  1  0
 25 26  2  0
 26 27  1  0
 27 28  2  0
 28 29  1  0
 29 30  2  0
 30 31  1  0
 31 32  2  0
 32 33  1  0
 33 34  2  0
 34 25  1  0
 34 29  1  0
  6 35  1  0
 35 36  1  0
  5 37  1  6
 37 38  1  0
 37 39  1  0
 39 40  2  0
 39 41  1  0
 41 42  1  1
 42 43  1  0
 43 44  2  0
 43 45  1  0
 45 46  1  6
 46 47  1  0
 45 48  1  0
 48 49  1  0
 48 50  1  0
 41 51  1  0
 51 52  1  0
 51 53  1  0
M  END
> <Smiles>
CC[C@H](C)[C@@H]([C@@H](CC(=O)N1CCC[C@H]1[C@H](OC)[C@@H](C)C(=O)NCCc1ccnc2ccccc12)OC)N(C)C(=O)[C@@H](NC(=O)[C@@H](NC)C(C)C)C(C)C

> <ID>
CHEMBL4160170

> <standard_value>
0.176

> <IC50_uM>
0.000176

> <Activity>
Yes

> <pIC50>
9.754487332

> <BCI>
1

$$$$

  SciTegic03012415362D

 81 81  0  0  1  0            999 V2000
    3.0021   12.0680    0.0000 C   0  0
    2.4917   10.6575    0.0000 C   0  0
    1.0150   10.3947    0.0000 C   0  0
    3.4579    9.5090    0.0000 C   0  0
    2.9432    8.0863    0.0000 C   0  0  1  0  0  0
    1.4942    8.4746    0.0000 O   0  0
    0.0000    8.6053    0.0000 C   0  0
   -0.0001   10.1053    0.0000 O   0  0
   -1.4943    8.4746    0.0000 C   0  0  2  0  0  0
   -1.7599    9.9640    0.0000 C   0  0
   -3.1702   10.4752    0.0000 C   0  0
   -0.6124   10.9301    0.0000 C   0  0
   -2.9432    8.0863    0.0000 N   0  0
   -4.3027    7.4524    0.0000 C   0  0
   -5.0527    8.7514    0.0000 O   0  0
   -5.5314    6.5920    0.0000 C   0  0  2  0  0  0
   -6.4956    7.7411    0.0000 C   0  0
   -6.5921    5.5313    0.0000 O   0  0
   -7.4524    4.3026    0.0000 C   0  0
   -8.7515    5.0526    0.0000 O   0  0
   -8.0863    2.9431    0.0000 C   0  0  1  0  0  0
   -9.5091    3.4579    0.0000 C   0  0
  -10.6569    2.4922    0.0000 C   0  0
   -9.7720    4.9347    0.0000 C   0  0
   -8.4746    1.4943    0.0000 N   0  0
   -8.6053    0.0000    0.0000 C   0  0
  -10.1053    0.0000    0.0000 O   0  0
   -8.4746   -1.4943    0.0000 C   0  0  1  0  0  0
   -9.9650   -1.7542    0.0000 C   0  0
  -10.9283   -0.6032    0.0000 C   0  0
  -12.4060   -0.8608    0.0000 C   0  0
  -10.4129    0.8055    0.0000 C   0  0
   -8.0863   -2.9432    0.0000 O   0  0
   -7.4524   -4.3027    0.0000 C   0  0
   -8.7514   -5.0527    0.0000 O   0  0
   -6.5920   -5.5314    0.0000 C   0  0  2  0  0  0
   -7.7491   -6.5062    0.0000 C   0  0
   -7.4867   -7.9830    0.0000 C   0  0
   -9.1595   -5.9954    0.0000 C   0  0
   -5.5314   -6.5921    0.0000 N   0  0
   -4.3026   -7.4524    0.0000 C   0  0
   -5.0526   -8.7515    0.0000 O   0  0
   -2.9432   -8.0863    0.0000 C   0  0  2  0  0  0
   -3.4562   -9.4959    0.0000 C   0  0
   -1.4943   -8.4746    0.0000 O   0  0
    0.0000   -8.6053    0.0000 C   0  0
    0.0000  -10.1053    0.0000 O   0  0
    1.4943   -8.4746    0.0000 C   0  0  1  0  0  0
    1.7599   -9.9640    0.0000 C   0  0
    3.1701  -10.4752    0.0000 C   0  0
    0.6124  -10.9301    0.0000 C   0  0
    2.9432   -8.0863    0.0000 N   0  0
    4.3027   -7.4524    0.0000 C   0  0
    5.0527   -8.7514    0.0000 O   0  0
    5.5314   -6.5920    0.0000 C   0  0  1  0  0  0
    6.5017   -7.7529    0.0000 C   0  0
    5.9865   -9.1625    0.0000 C   0  0
    6.9485  -10.3135    0.0000 C   0  0
    4.5089   -9.4206    0.0000 C   0  0
    6.5920   -5.5314    0.0000 O   0  0
    7.4524   -4.3026    0.0000 C   0  0
    8.7514   -5.0526    0.0000 O   0  0
    8.0863   -2.9432    0.0000 C   0  0  2  0  0  0
    9.5091   -3.4579    0.0000 C   0  0
   10.6569   -2.4922    0.0000 C   0  0
    9.7719   -4.9347    0.0000 C   0  0
    8.4746   -1.4943    0.0000 N   0  0
    8.6053    0.0000    0.0000 C   0  0
   10.1053    0.0000    0.0000 O   0  0
    8.4746    1.4943    0.0000 C   0  0  2  0  0  0
    9.9518    1.7548    0.0000 C   0  0
    8.0863    2.9432    0.0000 O   0  0
    7.4524    4.3027    0.0000 C   0  0
    8.7514    5.0527    0.0000 O   0  0
    6.5920    5.5314    0.0000 C   0  0  1  0  0  0
    7.7492    6.5061    0.0000 C   0  0
    7.4868    7.9830    0.0000 C   0  0
    9.1595    5.9954    0.0000 C   0  0
    5.5314    6.5920    0.0000 N   0  0
    4.3026    7.4524    0.0000 C   0  0
    5.0526    8.7514    0.0000 O   0  0
  1  2  1  0
  2  3  1  0
  2  4  1  0
  5  4  1  6
  5  6  1  0
  6  7  1  0
  7  8  2  0
  7  9  1  0
  9 10  1  1
 10 11  1  0
 10 12  1  0
  9 13  1  0
 13 14  1  0
 14 15  2  0
 14 16  1  0
 16 17  1  1
 16 18  1  0
 18 19  1  0
 19 20  2  0
 19 21  1  0
 21 22  1  6
 22 23  1  0
 22 24  1  0
 21 25  1  0
 25 26  1  0
 26 27  2  0
 26 28  1  0
 28 29  1  6
 29 30  1  0
 30 31  1  0
 30 32  1  0
 28 33  1  0
 33 34  1  0
 34 35  2  0
 34 36  1  0
 36 37  1  1
 37 38  1  0
 37 39  1  0
 36 40  1  0
 40 41  1  0
 41 42  2  0
 41 43  1  0
 43 44  1  1
 43 45  1  0
 45 46  1  0
 46 47  2  0
 46 48  1  0
 48 49  1  6
 49 50  1  0
 49 51  1  0
 48 52  1  0
 52 53  1  0
 53 54  2  0
 53 55  1  0
 55 56  1  6
 56 57  1  0
 57 58  1  0
 57 59  1  0
 55 60  1  0
 60 61  1  0
 61 62  2  0
 61 63  1  0
 63 64  1  1
 64 65  1  0
 64 66  1  0
 63 67  1  0
 67 68  1  0
 68 69  2  0
 68 70  1  0
 70 71  1  1
 70 72  1  0
 72 73  1  0
 73 74  2  0
 73 75  1  0
 75 76  1  6
 76 77  1  0
 76 78  1  0
 75 79  1  0
 79 80  1  0
 80  5  1  0
 80 81  2  0
M  END
> <Smiles>
CC(C)C[C@H]1OC(=O)[C@H](C(C)C)NC(=O)[C@H](C)OC(=O)[C@@H](C(C)C)NC(=O)[C@@H](CC(C)C)OC(=O)[C@H](C(C)C)NC(=O)[C@H](C)OC(=O)[C@@H](C(C)C)NC(=O)[C@@H](CC(C)C)OC(=O)[C@H](C(C)C)NC(=O)[C@H](C)OC(=O)[C@@H](C
(C)C)NC1=O

> <ID>
CHEMBL3577194

> <standard_value>
0.18

> <IC50_uM>
0.00018

> <Activity>
Yes

> <pIC50>
9.744727495

> <BCI>
1

$$$$

  SciTegic03012415362D

 52 54  0  0  1  0            999 V2000
   13.6667   -3.0232    0.0000 C   0  0
   12.5440   -2.0285    0.0000 C   0  0
   11.1201   -2.5028    0.0000 C   0  0  2  0  0  0
   10.8195   -3.9724    0.0000 C   0  0
    9.9967   -1.5075    0.0000 C   0  0  1  0  0  0
    8.5723   -1.9802    0.0000 C   0  0  1  0  0  0
    8.2685   -3.4500    0.0000 C   0  0
    6.8441   -3.9227    0.0000 C   0  0
    5.7234   -2.9256    0.0000 O   0  0
    6.5408   -5.3899    0.0000 N   0  0
    7.5445   -6.5046    0.0000 C   0  0
    6.7945   -7.8036    0.0000 C   0  0
    5.3273   -7.4917    0.0000 C   0  0
    5.1894   -6.0109    0.0000 C   0  0  1  0  0  0
    3.8912   -5.2578    0.0000 C   0  0  2  0  0  0
    2.5917   -6.0086    0.0000 O   0  0
    2.5912   -7.5086    0.0000 C   0  0
    3.8933   -3.7570    0.0000 C   0  0  1  0  0  0
    5.1937   -3.0093    0.0000 C   0  0
    2.5951   -3.0039    0.0000 C   0  0
    1.2948   -3.7516    0.0000 O   0  0
    2.5973   -1.5031    0.0000 N   0  0
    1.2990   -0.7500    0.0000 C   0  0
    1.2990    0.7500    0.0000 C   0  0
    0.0000    1.5000    0.0000 C   0  0
   -1.2990    0.7500    0.0000 C   0  0
   -2.5981    1.5000    0.0000 N   0  0
   -3.8971    0.7500    0.0000 C   0  0
   -3.8971   -0.7500    0.0000 C   0  0
   -2.5981   -1.5000    0.0000 C   0  0
   -1.2990   -0.7500    0.0000 C   0  0
    0.0000   -1.5000    0.0000 C   0  0
    7.4531   -0.9803    0.0000 O   0  0
    7.7583    0.4883    0.0000 C   0  0
   10.3005   -0.0377    0.0000 N   0  0
    9.1798    0.9593    0.0000 C   0  0
   11.7249    0.4350    0.0000 C   0  0
   12.8456   -0.5620    0.0000 O   0  0
   12.0287    1.9048    0.0000 C   0  0  1  0  0  0
   13.4531    2.3775    0.0000 N   0  0
   13.7569    3.8472    0.0000 C   0  0
   12.6362    4.8443    0.0000 O   0  0
   15.1813    4.3200    0.0000 C   0  0  2  0  0  0
   15.4851    5.7897    0.0000 C   0  0
   16.9087    6.2622    0.0000 C   0  0
   14.3644    6.7868    0.0000 C   0  0
   16.3047    3.3247    0.0000 N   0  0
   17.7278    3.7987    0.0000 C   0  0
   16.0041    1.8551    0.0000 C   0  0
   10.9094    2.9047    0.0000 C   0  0
   11.2147    4.3733    0.0000 C   0  0
    9.4848    2.4351    0.0000 C   0  0
  1  2  1  0
  2  3  1  0
  3  4  1  6
  3  5  1  0
  5  6  1  0
  6  7  1  1
  7  8  1  0
  8  9  2  0
  8 10  1  0
 10 11  1  0
 11 12  1  0
 12 13  1  0
 14 13  1  1
 14 10  1  0
 14 15  1  0
 15 16  1  6
 16 17  1  0
 15 18  1  0
 18 19  1  6
 18 20  1  0
 20 21  2  0
 20 22  1  0
 22 23  1  0
 23 24  2  0
 24 25  1  0
 25 26  2  0
 26 27  1  0
 27 28  2  0
 28 29  1  0
 29 30  2  0
 30 31  1  0
 31 26  1  0
 31 32  2  0
 32 23  1  0
  6 33  1  0
 33 34  1  0
  5 35  1  1
 35 36  1  0
 35 37  1  0
 37 38  2  0
 37 39  1  0
 39 40  1  6
 40 41  1  0
 41 42  2  0
 43 41  1  6
 43 44  1  0
 44 45  1  0
 44 46  1  0
 43 47  1  0
 47 48  1  0
 47 49  1  0
 39 50  1  0
 50 51  1  0
 50 52  1  0
M  END
> <Smiles>
CC[C@H](C)[C@@H]([C@@H](CC(=O)N1CCC[C@H]1[C@H](OC)[C@@H](C)C(=O)Nc1ccc2ncccc2c1)OC)N(C)C(=O)[C@@H](NC(=O)[C@H](C(C)C)N(C)C)C(C)C

> <ID>
CHEMBL1784335

> <standard_value>
0.22

> <IC50_uM>
0.00022

> <Activity>
Yes

> <pIC50>
9.657577319

> <BCI>
1

$$$$

  SciTegic03012415362D

 54 56  0  0  1  0            999 V2000
   12.0515  -10.3195    0.0000 C   0  0
   10.6287   -9.8446    0.0000 C   0  0
   10.3275   -8.3743    0.0000 C   0  0  2  0  0  0
   11.4499   -7.3792    0.0000 C   0  0
    8.9039   -7.8991    0.0000 C   0  0  1  0  0  0
    8.6011   -6.4292    0.0000 C   0  0  1  0  0  0
    9.7220   -5.4312    0.0000 C   0  0
    9.4192   -3.9613    0.0000 C   0  0
    7.9954   -3.4893    0.0000 O   0  0
   10.5381   -2.9650    0.0000 N   0  0
   12.0054   -3.2769    0.0000 C   0  0
   12.7554   -1.9778    0.0000 C   0  0
   11.7516   -0.8631    0.0000 C   0  0
   10.4003   -1.4841    0.0000 C   0  0  1  0  0  0
    9.0990   -0.7364    0.0000 C   0  0  2  0  0  0
    9.0994    0.7644    0.0000 O   0  0
   10.3982    1.5148    0.0000 C   0  0
    7.8003   -1.4887    0.0000 C   0  0  1  0  0  0
    7.8029   -2.9887    0.0000 C   0  0
    6.4990   -0.7409    0.0000 C   0  0
    6.4964    0.7591    0.0000 O   0  0
    5.2003   -1.4932    0.0000 N   0  0
    3.8990   -0.7455    0.0000 C   0  0
    2.6003   -1.4977    0.0000 C   0  0
    1.2990   -0.7500    0.0000 C   0  0
    1.2990    0.7500    0.0000 C   0  0
    0.0000    1.5000    0.0000 C   0  0
   -1.2990    0.7500    0.0000 N   0  0
   -1.2990   -0.7500    0.0000 C   0  0
   -2.5981   -1.5000    0.0000 C   0  0
   -2.5981   -3.0000    0.0000 C   0  0
   -1.2990   -3.7500    0.0000 C   0  0
    0.0000   -3.0000    0.0000 C   0  0
    0.0000   -1.5000    0.0000 C   0  0
    7.1755   -5.9598    0.0000 O   0  0
    6.0562   -6.9585    0.0000 C   0  0
    7.7829   -8.8971    0.0000 N   0  0
    6.3591   -8.4251    0.0000 C   0  0
    8.0858  -10.3670    0.0000 C   0  0
    9.5096  -10.8390    0.0000 O   0  0
    6.9648  -11.3650    0.0000 C   0  0  1  0  0  0
    7.2676  -12.8349    0.0000 N   0  0
    6.1467  -13.8329    0.0000 C   0  0
    4.7228  -13.3609    0.0000 O   0  0
    6.4495  -15.3028    0.0000 C   0  0  2  0  0  0
    5.3285  -16.3008    0.0000 C   0  0
    5.6312  -17.7699    0.0000 C   0  0
    3.9047  -15.8288    0.0000 C   0  0
    7.8731  -15.7780    0.0000 N   0  0
    8.1741  -17.2475    0.0000 C   0  0
    8.9955  -14.7829    0.0000 C   0  0
    5.5392  -10.8956    0.0000 C   0  0
    4.4200  -11.8943    0.0000 C   0  0
    5.2335   -9.4271    0.0000 C   0  0
  1  2  1  0
  2  3  1  0
  3  4  1  1
  3  5  1  0
  5  6  1  0
  6  7  1  6
  7  8  1  0
  8  9  2  0
  8 10  1  0
 10 11  1  0
 11 12  1  0
 12 13  1  0
 14 13  1  6
 14 10  1  0
 14 15  1  0
 15 16  1  1
 16 17  1  0
 15 18  1  0
 18 19  1  1
 18 20  1  0
 20 21  2  0
 20 22  1  0
 22 23  1  0
 23 24  1  0
 24 25  1  0
 25 26  2  0
 26 27  1  0
 27 28  2  0
 28 29  1  0
 29 30  2  0
 30 31  1  0
 31 32  2  0
 32 33  1  0
 33 34  2  0
 34 25  1  0
 34 29  1  0
  6 35  1  0
 35 36  1  0
  5 37  1  6
 37 38  1  0
 37 39  1  0
 39 40  2  0
 39 41  1  0
 41 42  1  1
 42 43  1  0
 43 44  2  0
 45 43  1  1
 45 46  1  0
 46 47  1  0
 46 48  1  0
 45 49  1  0
 49 50  1  0
 49 51  1  0
 41 52  1  0
 52 53  1  0
 52 54  1  0
M  END
> <Smiles>
CC[C@H](C)[C@@H]([C@@H](CC(=O)N1CCC[C@H]1[C@H](OC)[C@@H](C)C(=O)NCCc1ccnc2ccccc12)OC)N(C)C(=O)[C@@H](NC(=O)[C@H](C(C)C)N(C)C)C(C)C

> <ID>
CHEMBL4105295

> <standard_value>
0.252

> <IC50_uM>
0.000252

> <Activity>
Yes

> <pIC50>
9.598599459

> <BCI>
1

$$$$

  SciTegic03012415362D

 54 56  0  0  1  0            999 V2000
   12.0515  -10.3195    0.0000 C   0  0
   10.6287   -9.8446    0.0000 C   0  0
   10.3275   -8.3743    0.0000 C   0  0  2  0  0  0
   11.4499   -7.3792    0.0000 C   0  0
    8.9039   -7.8991    0.0000 C   0  0  1  0  0  0
    8.6011   -6.4292    0.0000 C   0  0  1  0  0  0
    9.7220   -5.4312    0.0000 C   0  0
    9.4192   -3.9613    0.0000 C   0  0
    7.9954   -3.4893    0.0000 O   0  0
   10.5381   -2.9650    0.0000 N   0  0
   12.0054   -3.2769    0.0000 C   0  0
   12.7554   -1.9778    0.0000 C   0  0
   11.7516   -0.8631    0.0000 C   0  0
   10.4003   -1.4841    0.0000 C   0  0  1  0  0  0
    9.0990   -0.7364    0.0000 C   0  0  2  0  0  0
    9.0994    0.7644    0.0000 O   0  0
   10.3982    1.5148    0.0000 C   0  0
    7.8003   -1.4887    0.0000 C   0  0  1  0  0  0
    7.8029   -2.9887    0.0000 C   0  0
    6.4990   -0.7409    0.0000 C   0  0
    6.4964    0.7591    0.0000 O   0  0
    5.2003   -1.4932    0.0000 N   0  0
    3.8990   -0.7455    0.0000 C   0  0
    2.6003   -1.4977    0.0000 C   0  0
    1.2990   -0.7500    0.0000 C   0  0
    1.2990    0.7500    0.0000 C   0  0
    0.0000    1.5000    0.0000 C   0  0
   -1.2990    0.7500    0.0000 C   0  0
   -1.2990   -0.7500    0.0000 C   0  0
   -2.5981   -1.5000    0.0000 C   0  0
   -2.5981   -3.0000    0.0000 N   0  0
   -1.2990   -3.7500    0.0000 C   0  0
    0.0000   -3.0000    0.0000 C   0  0
    0.0000   -1.5000    0.0000 C   0  0
    7.1755   -5.9598    0.0000 O   0  0
    6.0562   -6.9585    0.0000 C   0  0
    7.7829   -8.8971    0.0000 N   0  0
    6.3591   -8.4251    0.0000 C   0  0
    8.0858  -10.3670    0.0000 C   0  0
    9.5096  -10.8390    0.0000 O   0  0
    6.9648  -11.3650    0.0000 C   0  0  1  0  0  0
    7.2676  -12.8349    0.0000 N   0  0
    6.1467  -13.8329    0.0000 C   0  0
    4.7228  -13.3609    0.0000 O   0  0
    6.4495  -15.3028    0.0000 C   0  0  2  0  0  0
    5.3285  -16.3008    0.0000 C   0  0
    5.6312  -17.7699    0.0000 C   0  0
    3.9047  -15.8288    0.0000 C   0  0
    7.8731  -15.7780    0.0000 N   0  0
    8.1741  -17.2475    0.0000 C   0  0
    8.9955  -14.7829    0.0000 C   0  0
    5.5392  -10.8956    0.0000 C   0  0
    4.4200  -11.8943    0.0000 C   0  0
    5.2335   -9.4271    0.0000 C   0  0
  1  2  1  0
  2  3  1  0
  3  4  1  1
  3  5  1  0
  5  6  1  0
  6  7  1  6
  7  8  1  0
  8  9  2  0
  8 10  1  0
 10 11  1  0
 11 12  1  0
 12 13  1  0
 14 13  1  6
 14 10  1  0
 14 15  1  0
 15 16  1  1
 16 17  1  0
 15 18  1  0
 18 19  1  1
 18 20  1  0
 20 21  2  0
 20 22  1  0
 22 23  1  0
 23 24  1  0
 24 25  1  0
 25 26  2  0
 26 27  1  0
 27 28  2  0
 28 29  1  0
 29 30  2  0
 30 31  1  0
 31 32  2  0
 32 33  1  0
 33 34  2  0
 34 25  1  0
 34 29  1  0
  6 35  1  0
 35 36  1  0
  5 37  1  6
 37 38  1  0
 37 39  1  0
 39 40  2  0
 39 41  1  0
 41 42  1  1
 42 43  1  0
 43 44  2  0
 45 43  1  1
 45 46  1  0
 46 47  1  0
 46 48  1  0
 45 49  1  0
 49 50  1  0
 49 51  1  0
 41 52  1  0
 52 53  1  0
 52 54  1  0
M  END
> <Smiles>
CC[C@H](C)[C@@H]([C@@H](CC(=O)N1CCC[C@H]1[C@H](OC)[C@@H](C)C(=O)NCCc1cccc2cnccc12)OC)N(C)C(=O)[C@@H](NC(=O)[C@H](C(C)C)N(C)C)C(C)C

> <ID>
CHEMBL4161153

> <standard_value>
0.266

> <IC50_uM>
0.000266

> <Activity>
Yes

> <pIC50>
9.575118363

> <BCI>
1

$$$$

  SciTegic03012415362D

 54 56  0  0  1  0            999 V2000
   14.9628   -5.2771    0.0000 C   0  0
   13.8401   -4.2824    0.0000 C   0  0
   12.4161   -4.7567    0.0000 C   0  0  2  0  0  0
   12.1156   -6.2263    0.0000 C   0  0
   11.2928   -3.7614    0.0000 C   0  0  1  0  0  0
    9.8684   -4.2341    0.0000 C   0  0  1  0  0  0
    9.5646   -5.7039    0.0000 C   0  0
    8.1402   -6.1766    0.0000 C   0  0
    7.0195   -5.1796    0.0000 O   0  0
    7.8369   -7.6438    0.0000 N   0  0
    8.8406   -8.7585    0.0000 C   0  0
    8.0906  -10.0575    0.0000 C   0  0
    6.6233   -9.7456    0.0000 C   0  0
    6.4855   -8.2648    0.0000 C   0  0  1  0  0  0
    5.1873   -7.5117    0.0000 C   0  0  2  0  0  0
    3.8877   -8.2626    0.0000 O   0  0
    3.8873   -9.7626    0.0000 C   0  0
    5.1894   -6.0109    0.0000 C   0  0  1  0  0  0
    6.4897   -5.2632    0.0000 C   0  0
    3.8912   -5.2578    0.0000 C   0  0
    2.5909   -6.0056    0.0000 O   0  0
    3.8933   -3.7570    0.0000 N   0  0
    2.5951   -3.0039    0.0000 C   0  0
    2.5973   -1.5031    0.0000 C   0  0
    1.2990   -0.7500    0.0000 C   0  0
    1.2990    0.7500    0.0000 C   0  0
    0.0000    1.5000    0.0000 C   0  0
   -1.2990    0.7500    0.0000 C   0  0
   -2.5981    1.5000    0.0000 C   0  0
   -3.8971    0.7500    0.0000 C   0  0
   -3.8971   -0.7500    0.0000 C   0  0
   -2.5981   -1.5000    0.0000 C   0  0
   -1.2990   -0.7500    0.0000 C   0  0
    0.0000   -1.5000    0.0000 N   0  0
    8.7491   -3.2342    0.0000 O   0  0
    9.0543   -1.7656    0.0000 C   0  0
   11.5966   -2.2916    0.0000 N   0  0
   10.4759   -1.2946    0.0000 C   0  0
   13.0210   -1.8189    0.0000 C   0  0
   14.1417   -2.8159    0.0000 O   0  0
   13.3248   -0.3491    0.0000 C   0  0  1  0  0  0
   14.7492    0.1236    0.0000 N   0  0
   15.0529    1.5933    0.0000 C   0  0
   13.9323    2.5904    0.0000 O   0  0
   16.4774    2.0661    0.0000 C   0  0  2  0  0  0
   16.7811    3.5358    0.0000 C   0  0
   18.2048    4.0083    0.0000 C   0  0
   15.6605    4.5329    0.0000 C   0  0
   17.6007    1.0708    0.0000 N   0  0
   19.0239    1.5448    0.0000 C   0  0
   17.3002   -0.3988    0.0000 C   0  0
   12.2055    0.6508    0.0000 C   0  0
   12.5107    2.1194    0.0000 C   0  0
   10.7809    0.1812    0.0000 C   0  0
  1  2  1  0
  2  3  1  0
  3  4  1  6
  3  5  1  0
  5  6  1  0
  6  7  1  1
  7  8  1  0
  8  9  2  0
  8 10  1  0
 10 11  1  0
 11 12  1  0
 12 13  1  0
 14 13  1  1
 14 10  1  0
 14 15  1  0
 15 16  1  6
 16 17  1  0
 15 18  1  0
 18 19  1  6
 18 20  1  0
 20 21  2  0
 20 22  1  0
 22 23  1  0
 23 24  1  0
 24 25  1  0
 25 26  2  0
 26 27  1  0
 27 28  2  0
 28 29  1  0
 29 30  2  0
 30 31  1  0
 31 32  2  0
 32 33  1  0
 33 28  1  0
 33 34  2  0
 34 25  1  0
  6 35  1  0
 35 36  1  0
  5 37  1  1
 37 38  1  0
 37 39  1  0
 39 40  2  0
 39 41  1  0
 41 42  1  6
 42 43  1  0
 43 44  2  0
 45 43  1  6
 45 46  1  0
 46 47  1  0
 46 48  1  0
 45 49  1  0
 49 50  1  0
 49 51  1  0
 41 52  1  0
 52 53  1  0
 52 54  1  0
M  END
> <Smiles>
CC[C@H](C)[C@@H]([C@@H](CC(=O)N1CCC[C@H]1[C@H](OC)[C@@H](C)C(=O)NCCc1ccc2ccccc2n1)OC)N(C)C(=O)[C@@H](NC(=O)[C@H](C(C)C)N(C)C)C(C)C

> <ID>
CHEMBL4097586

> <standard_value>
0.31

> <IC50_uM>
0.00031

> <Activity>
Yes

> <pIC50>
9.508638306

> <BCI>
1

$$$$

  SciTegic03012415362D

 53 55  0  0  1  0            999 V2000
   14.9628   -5.2771    0.0000 C   0  0
   13.8401   -4.2824    0.0000 C   0  0
   12.4161   -4.7567    0.0000 C   0  0  2  0  0  0
   12.1156   -6.2263    0.0000 C   0  0
   11.2928   -3.7614    0.0000 C   0  0  1  0  0  0
    9.8684   -4.2341    0.0000 C   0  0  1  0  0  0
    9.5646   -5.7039    0.0000 C   0  0
    8.1402   -6.1766    0.0000 C   0  0
    7.0195   -5.1796    0.0000 O   0  0
    7.8369   -7.6438    0.0000 N   0  0
    8.8406   -8.7585    0.0000 C   0  0
    8.0906  -10.0575    0.0000 C   0  0
    6.6233   -9.7456    0.0000 C   0  0
    6.4855   -8.2648    0.0000 C   0  0  1  0  0  0
    5.1873   -7.5117    0.0000 C   0  0  2  0  0  0
    3.8877   -8.2626    0.0000 O   0  0
    3.8873   -9.7626    0.0000 C   0  0
    5.1894   -6.0109    0.0000 C   0  0  1  0  0  0
    6.4897   -5.2632    0.0000 C   0  0
    3.8912   -5.2578    0.0000 C   0  0
    2.5909   -6.0056    0.0000 O   0  0
    3.8933   -3.7570    0.0000 N   0  0
    2.5951   -3.0039    0.0000 C   0  0
    2.5973   -1.5031    0.0000 C   0  0
    1.2990   -0.7500    0.0000 C   0  0
    1.2990    0.7500    0.0000 C   0  0
    0.0000    1.5000    0.0000 C   0  0
   -1.2990    0.7500    0.0000 C   0  0
   -2.5981    1.5000    0.0000 C   0  0
   -3.8971    0.7500    0.0000 C   0  0
   -3.8971   -0.7500    0.0000 N   0  0
   -2.5981   -1.5000    0.0000 C   0  0
   -1.2990   -0.7500    0.0000 C   0  0
    0.0000   -1.5000    0.0000 C   0  0
    8.7491   -3.2342    0.0000 O   0  0
    9.0543   -1.7656    0.0000 C   0  0
   11.5966   -2.2916    0.0000 N   0  0
   10.4759   -1.2946    0.0000 C   0  0
   13.0210   -1.8189    0.0000 C   0  0
   14.1417   -2.8159    0.0000 O   0  0
   13.3248   -0.3491    0.0000 C   0  0  1  0  0  0
   14.7492    0.1236    0.0000 N   0  0
   15.0529    1.5933    0.0000 C   0  0
   13.9323    2.5904    0.0000 O   0  0
   16.4774    2.0661    0.0000 C   0  0  1  0  0  0
   16.7811    3.5358    0.0000 N   0  0
   18.2048    4.0083    0.0000 C   0  0
   17.6007    1.0708    0.0000 C   0  0
   19.0239    1.5448    0.0000 C   0  0
   17.3002   -0.3988    0.0000 C   0  0
   12.2055    0.6508    0.0000 C   0  0
   12.5107    2.1194    0.0000 C   0  0
   10.7809    0.1812    0.0000 C   0  0
  1  2  1  0
  2  3  1  0
  3  4  1  6
  3  5  1  0
  5  6  1  0
  6  7  1  1
  7  8  1  0
  8  9  2  0
  8 10  1  0
 10 11  1  0
 11 12  1  0
 12 13  1  0
 14 13  1  1
 14 10  1  0
 14 15  1  0
 15 16  1  6
 16 17  1  0
 15 18  1  0
 18 19  1  6
 18 20  1  0
 20 21  2  0
 20 22  1  0
 22 23  1  0
 23 24  1  0
 24 25  1  0
 25 26  2  0
 26 27  1  0
 27 28  2  0
 28 29  1  0
 29 30  2  0
 30 31  1  0
 31 32  2  0
 32 33  1  0
 33 28  1  0
 33 34  2  0
 34 25  1  0
  6 35  1  0
 35 36  1  0
  5 37  1  1
 37 38  1  0
 37 39  1  0
 39 40  2  0
 39 41  1  0
 41 42  1  6
 42 43  1  0
 43 44  2  0
 43 45  1  0
 45 46  1  1
 46 47  1  0
 45 48  1  0
 48 49  1  0
 48 50  1  0
 41 51  1  0
 51 52  1  0
 51 53  1  0
M  END
> <Smiles>
CC[C@H](C)[C@@H]([C@@H](CC(=O)N1CCC[C@H]1[C@H](OC)[C@@H](C)C(=O)NCCc1ccc2ccncc2c1)OC)N(C)C(=O)[C@@H](NC(=O)[C@@H](NC)C(C)C)C(C)C

> <ID>
CHEMBL4159214

> <standard_value>
0.325

> <IC50_uM>
0.000325

> <Activity>
Yes

> <pIC50>
9.488116639

> <BCI>
1

$$$$

  SciTegic03012415362D

 54 56  0  0  1  0            999 V2000
   14.9628   -5.2771    0.0000 C   0  0
   13.8401   -4.2824    0.0000 C   0  0
   12.4161   -4.7567    0.0000 C   0  0  2  0  0  0
   12.1156   -6.2263    0.0000 C   0  0
   11.2928   -3.7614    0.0000 C   0  0  1  0  0  0
    9.8684   -4.2341    0.0000 C   0  0  1  0  0  0
    9.5646   -5.7039    0.0000 C   0  0
    8.1402   -6.1766    0.0000 C   0  0
    7.0195   -5.1796    0.0000 O   0  0
    7.8369   -7.6438    0.0000 N   0  0
    8.8406   -8.7585    0.0000 C   0  0
    8.0906  -10.0575    0.0000 C   0  0
    6.6233   -9.7456    0.0000 C   0  0
    6.4855   -8.2648    0.0000 C   0  0  1  0  0  0
    5.1873   -7.5117    0.0000 C   0  0  2  0  0  0
    3.8877   -8.2626    0.0000 O   0  0
    3.8873   -9.7626    0.0000 C   0  0
    5.1894   -6.0109    0.0000 C   0  0  1  0  0  0
    6.4897   -5.2632    0.0000 C   0  0
    3.8912   -5.2578    0.0000 C   0  0
    2.5909   -6.0056    0.0000 O   0  0
    3.8933   -3.7570    0.0000 N   0  0
    2.5951   -3.0039    0.0000 C   0  0
    2.5973   -1.5031    0.0000 C   0  0
    1.2990   -0.7500    0.0000 C   0  0
    1.2990    0.7500    0.0000 C   0  0
    0.0000    1.5000    0.0000 N   0  0
   -1.2990    0.7500    0.0000 C   0  0
   -2.5981    1.5000    0.0000 C   0  0
   -3.8971    0.7500    0.0000 C   0  0
   -3.8971   -0.7500    0.0000 C   0  0
   -2.5981   -1.5000    0.0000 C   0  0
   -1.2990   -0.7500    0.0000 C   0  0
    0.0000   -1.5000    0.0000 C   0  0
    8.7491   -3.2342    0.0000 O   0  0
    9.0543   -1.7656    0.0000 C   0  0
   11.5966   -2.2916    0.0000 N   0  0
   10.4759   -1.2946    0.0000 C   0  0
   13.0210   -1.8189    0.0000 C   0  0
   14.1417   -2.8159    0.0000 O   0  0
   13.3248   -0.3491    0.0000 C   0  0  1  0  0  0
   14.7492    0.1236    0.0000 N   0  0
   15.0529    1.5933    0.0000 C   0  0
   13.9323    2.5904    0.0000 O   0  0
   16.4774    2.0661    0.0000 C   0  0  2  0  0  0
   16.7811    3.5358    0.0000 C   0  0
   18.2048    4.0083    0.0000 C   0  0
   15.6605    4.5329    0.0000 C   0  0
   17.6007    1.0708    0.0000 N   0  0
   19.0239    1.5448    0.0000 C   0  0
   17.3002   -0.3988    0.0000 C   0  0
   12.2055    0.6508    0.0000 C   0  0
   12.5107    2.1194    0.0000 C   0  0
   10.7809    0.1812    0.0000 C   0  0
  1  2  1  0
  2  3  1  0
  3  4  1  6
  3  5  1  0
  5  6  1  0
  6  7  1  1
  7  8  1  0
  8  9  2  0
  8 10  1  0
 10 11  1  0
 11 12  1  0
 12 13  1  0
 14 13  1  1
 14 10  1  0
 14 15  1  0
 15 16  1  6
 16 17  1  0
 15 18  1  0
 18 19  1  6
 18 20  1  0
 20 21  2  0
 20 22  1  0
 22 23  1  0
 23 24  1  0
 24 25  1  0
 25 26  2  0
 26 27  1  0
 27 28  2  0
 28 29  1  0
 29 30  2  0
 30 31  1  0
 31 32  2  0
 32 33  1  0
 33 28  1  0
 33 34  2  0
 34 25  1  0
  6 35  1  0
 35 36  1  0
  5 37  1  1
 37 38  1  0
 37 39  1  0
 39 40  2  0
 39 41  1  0
 41 42  1  6
 42 43  1  0
 43 44  2  0
 45 43  1  6
 45 46  1  0
 46 47  1  0
 46 48  1  0
 45 49  1  0
 49 50  1  0
 49 51  1  0
 41 52  1  0
 52 53  1  0
 52 54  1  0
M  END
> <Smiles>
CC[C@H](C)[C@@H]([C@@H](CC(=O)N1CCC[C@H]1[C@H](OC)[C@@H](C)C(=O)NCCc1cnc2ccccc2c1)OC)N(C)C(=O)[C@@H](NC(=O)[C@H](C(C)C)N(C)C)C(C)C

> <ID>
CHEMBL4079559

> <standard_value>
0.385

> <IC50_uM>
0.000385

> <Activity>
Yes

> <pIC50>
9.41453927

> <BCI>
1

$$$$

  SciTegic03012415362D

 81 81  0  0  1  0            999 V2000
    3.0021   12.0680    0.0000 C   0  0
    2.4917   10.6575    0.0000 C   0  0
    3.4579    9.5090    0.0000 C   0  0  2  0  0  0
    4.9347    9.7719    0.0000 C   0  0
    2.9432    8.0863    0.0000 C   0  0  1  0  0  0
    1.4942    8.4746    0.0000 O   0  0
    0.0000    8.6053    0.0000 C   0  0
   -0.0001   10.1053    0.0000 O   0  0
   -1.4943    8.4746    0.0000 C   0  0  2  0  0  0
   -1.7599    9.9640    0.0000 C   0  0
   -3.1702   10.4752    0.0000 C   0  0
   -0.6124   10.9301    0.0000 C   0  0
   -2.9432    8.0863    0.0000 N   0  0
   -4.3027    7.4524    0.0000 C   0  0
   -5.0527    8.7514    0.0000 O   0  0
   -5.5314    6.5920    0.0000 C   0  0  2  0  0  0
   -6.4956    7.7411    0.0000 C   0  0
   -6.5921    5.5313    0.0000 O   0  0
   -7.4524    4.3026    0.0000 C   0  0
   -8.7515    5.0526    0.0000 O   0  0
   -8.0863    2.9431    0.0000 C   0  0  1  0  0  0
   -9.5091    3.4579    0.0000 C   0  0
  -10.6569    2.4922    0.0000 C   0  0
   -9.7720    4.9347    0.0000 C   0  0
   -8.4746    1.4943    0.0000 N   0  0
   -8.6053    0.0000    0.0000 C   0  0
  -10.1053    0.0000    0.0000 O   0  0
   -8.4746   -1.4943    0.0000 C   0  0  1  0  0  0
   -9.9642   -1.7591    0.0000 C   0  0  1  0  0  0
  -10.4748   -3.1696    0.0000 C   0  0
  -10.9312   -0.6114    0.0000 C   0  0
  -12.4081   -0.8740    0.0000 C   0  0
   -8.0863   -2.9432    0.0000 O   0  0
   -7.4524   -4.3027    0.0000 C   0  0
   -8.7514   -5.0527    0.0000 O   0  0
   -6.5920   -5.5314    0.0000 C   0  0  2  0  0  0
   -7.7491   -6.5062    0.0000 C   0  0
   -7.4867   -7.9830    0.0000 C   0  0
   -9.1595   -5.9954    0.0000 C   0  0
   -5.5314   -6.5921    0.0000 N   0  0
   -4.3026   -7.4524    0.0000 C   0  0
   -5.0526   -8.7515    0.0000 O   0  0
   -2.9432   -8.0863    0.0000 C   0  0  2  0  0  0
   -3.4562   -9.4959    0.0000 C   0  0
   -1.4943   -8.4746    0.0000 O   0  0
    0.0000   -8.6053    0.0000 C   0  0
    0.0000  -10.1053    0.0000 O   0  0
    1.4943   -8.4746    0.0000 C   0  0  1  0  0  0
    1.7599   -9.9640    0.0000 C   0  0
    3.1701  -10.4752    0.0000 C   0  0
    0.6124  -10.9301    0.0000 C   0  0
    2.9432   -8.0863    0.0000 N   0  0
    4.3027   -7.4524    0.0000 C   0  0
    5.0527   -8.7514    0.0000 O   0  0
    5.5314   -6.5920    0.0000 C   0  0  1  0  0  0
    6.5055   -7.7497    0.0000 C   0  0  1  0  0  0
    7.9823   -7.4866    0.0000 C   0  0
    5.9951   -9.1610    0.0000 C   0  0
    6.9609  -10.3087    0.0000 C   0  0
    6.5920   -5.5314    0.0000 O   0  0
    7.4524   -4.3026    0.0000 C   0  0
    8.7514   -5.0526    0.0000 O   0  0
    8.0863   -2.9432    0.0000 C   0  0  2  0  0  0
    9.5091   -3.4579    0.0000 C   0  0
   10.6569   -2.4922    0.0000 C   0  0
    9.7719   -4.9347    0.0000 C   0  0
    8.4746   -1.4943    0.0000 N   0  0
    8.6053    0.0000    0.0000 C   0  0
   10.1053    0.0000    0.0000 O   0  0
    8.4746    1.4943    0.0000 C   0  0  2  0  0  0
    9.9518    1.7548    0.0000 C   0  0
    8.0863    2.9432    0.0000 O   0  0
    7.4524    4.3027    0.0000 C   0  0
    8.7514    5.0527    0.0000 O   0  0
    6.5920    5.5314    0.0000 C   0  0  1  0  0  0
    7.7492    6.5061    0.0000 C   0  0
    7.4868    7.9830    0.0000 C   0  0
    9.1595    5.9954    0.0000 C   0  0
    5.5314    6.5920    0.0000 N   0  0
    4.3026    7.4524    0.0000 C   0  0
    5.0526    8.7514    0.0000 O   0  0
  1  2  1  0
  2  3  1  0
  3  4  1  6
  3  5  1  0
  5  6  1  6
  6  7  1  0
  7  8  2  0
  7  9  1  0
  9 10  1  1
 10 11  1  0
 10 12  1  0
  9 13  1  0
 13 14  1  0
 14 15  2  0
 14 16  1  0
 16 17  1  1
 16 18  1  0
 18 19  1  0
 19 20  2  0
 19 21  1  0
 21 22  1  6
 22 23  1  0
 22 24  1  0
 21 25  1  0
 25 26  1  0
 26 27  2  0
 26 28  1  0
 28 29  1  0
 29 30  1  1
 29 31  1  0
 31 32  1  0
 28 33  1  6
 33 34  1  0
 34 35  2  0
 34 36  1  0
 36 37  1  1
 37 38  1  0
 37 39  1  0
 36 40  1  0
 40 41  1  0
 41 42  2  0
 41 43  1  0
 43 44  1  1
 43 45  1  0
 45 46  1  0
 46 47  2  0
 46 48  1  0
 48 49  1  6
 49 50  1  0
 49 51  1  0
 48 52  1  0
 52 53  1  0
 53 54  2  0
 53 55  1  0
 55 56  1  0
 56 57  1  1
 56 58  1  0
 58 59  1  0
 55 60  1  6
 60 61  1  0
 61 62  2  0
 61 63  1  0
 63 64  1  1
 64 65  1  0
 64 66  1  0
 63 67  1  0
 67 68  1  0
 68 69  2  0
 68 70  1  0
 70 71  1  1
 70 72  1  0
 72 73  1  0
 73 74  2  0
 73 75  1  0
 75 76  1  6
 76 77  1  0
 76 78  1  0
 75 79  1  0
 79 80  1  0
 80  5  1  0
 80 81  2  0
M  END
> <Smiles>
CC[C@H](C)[C@H]1OC(=O)[C@H](C(C)C)NC(=O)[C@H](C)OC(=O)[C@@H](C(C)C)NC(=O)[C@@H]([C@@H](C)CC)OC(=O)[C@H](C(C)C)NC(=O)[C@H](C)OC(=O)[C@@H](C(C)C)NC(=O)[C@@H]([C@@H](C)CC)OC(=O)[C@H](C(C)C)NC(=O)[C@H](C)
OC(=O)[C@@H](C(C)C)NC1=O

> <ID>
CHEMBL2304273

> <standard_value>
0.39

> <IC50_uM>
0.00039

> <Activity>
Yes

> <pIC50>
9.408935393

> <BCI>
1

$$$$

  SciTegic03012415362D

 54 56  0  0  1  0            999 V2000
   14.9628   -5.2771    0.0000 C   0  0
   13.8401   -4.2824    0.0000 C   0  0
   12.4161   -4.7567    0.0000 C   0  0  2  0  0  0
   12.1156   -6.2263    0.0000 C   0  0
   11.2928   -3.7614    0.0000 C   0  0  1  0  0  0
    9.8684   -4.2341    0.0000 C   0  0  1  0  0  0
    9.5646   -5.7039    0.0000 C   0  0
    8.1402   -6.1766    0.0000 C   0  0
    7.0195   -5.1796    0.0000 O   0  0
    7.8369   -7.6438    0.0000 N   0  0
    8.8406   -8.7585    0.0000 C   0  0
    8.0906  -10.0575    0.0000 C   0  0
    6.6233   -9.7456    0.0000 C   0  0
    6.4855   -8.2648    0.0000 C   0  0  1  0  0  0
    5.1873   -7.5117    0.0000 C   0  0  2  0  0  0
    3.8877   -8.2626    0.0000 O   0  0
    3.8873   -9.7626    0.0000 C   0  0
    5.1894   -6.0109    0.0000 C   0  0  1  0  0  0
    6.4897   -5.2632    0.0000 C   0  0
    3.8912   -5.2578    0.0000 C   0  0
    2.5909   -6.0056    0.0000 O   0  0
    3.8933   -3.7570    0.0000 N   0  0
    2.5951   -3.0039    0.0000 C   0  0
    2.5973   -1.5031    0.0000 C   0  0
    1.2990   -0.7500    0.0000 C   0  0
    1.2990    0.7500    0.0000 C   0  0
    0.0000    1.5000    0.0000 C   0  0
   -1.2990    0.7500    0.0000 C   0  0
   -2.5981    1.5000    0.0000 N   0  0
   -3.8971    0.7500    0.0000 C   0  0
   -3.8971   -0.7500    0.0000 C   0  0
   -2.5981   -1.5000    0.0000 C   0  0
   -1.2990   -0.7500    0.0000 C   0  0
    0.0000   -1.5000    0.0000 C   0  0
    8.7491   -3.2342    0.0000 O   0  0
    9.0543   -1.7656    0.0000 C   0  0
   11.5966   -2.2916    0.0000 N   0  0
   10.4759   -1.2946    0.0000 C   0  0
   13.0210   -1.8189    0.0000 C   0  0
   14.1417   -2.8159    0.0000 O   0  0
   13.3248   -0.3491    0.0000 C   0  0  1  0  0  0
   14.7492    0.1236    0.0000 N   0  0
   15.0529    1.5933    0.0000 C   0  0
   13.9323    2.5904    0.0000 O   0  0
   16.4774    2.0661    0.0000 C   0  0  2  0  0  0
   16.7811    3.5358    0.0000 C   0  0
   18.2048    4.0083    0.0000 C   0  0
   15.6605    4.5329    0.0000 C   0  0
   17.6007    1.0708    0.0000 N   0  0
   19.0239    1.5448    0.0000 C   0  0
   17.3002   -0.3988    0.0000 C   0  0
   12.2055    0.6508    0.0000 C   0  0
   12.5107    2.1194    0.0000 C   0  0
   10.7809    0.1812    0.0000 C   0  0
  1  2  1  0
  2  3  1  0
  3  4  1  6
  3  5  1  0
  5  6  1  0
  6  7  1  1
  7  8  1  0
  8  9  2  0
  8 10  1  0
 10 11  1  0
 11 12  1  0
 12 13  1  0
 14 13  1  1
 14 10  1  0
 14 15  1  0
 15 16  1  6
 16 17  1  0
 15 18  1  0
 18 19  1  6
 18 20  1  0
 20 21  2  0
 20 22  1  0
 22 23  1  0
 23 24  1  0
 24 25  1  0
 25 26  2  0
 26 27  1  0
 27 28  2  0
 28 29  1  0
 29 30  2  0
 30 31  1  0
 31 32  2  0
 32 33  1  0
 33 28  1  0
 33 34  2  0
 34 25  1  0
  6 35  1  0
 35 36  1  0
  5 37  1  1
 37 38  1  0
 37 39  1  0
 39 40  2  0
 39 41  1  0
 41 42  1  6
 42 43  1  0
 43 44  2  0
 45 43  1  6
 45 46  1  0
 46 47  1  0
 46 48  1  0
 45 49  1  0
 49 50  1  0
 49 51  1  0
 41 52  1  0
 52 53  1  0
 52 54  1  0
M  END
> <Smiles>
CC[C@H](C)[C@@H]([C@@H](CC(=O)N1CCC[C@H]1[C@H](OC)[C@@H](C)C(=O)NCCc1ccc2ncccc2c1)OC)N(C)C(=O)[C@@H](NC(=O)[C@H](C(C)C)N(C)C)C(C)C

> <ID>
CHEMBL4067713

> <standard_value>
0.399

> <IC50_uM>
0.000399

> <Activity>
Yes

> <pIC50>
9.399027104

> <BCI>
1

$$$$

  SciTegic03012415362D

 68 80  0  0  1  0            999 V2000
   -1.8413   -4.5811    0.0000 C   0  0
   -0.3667   -4.3062    0.0000 C   0  0  2  0  0  0
    0.7315   -5.3280    0.0000 C   0  0  2  0  0  0
    2.0426   -4.5993    0.0000 O   0  0
    1.7758   -3.1329    0.0000 C   0  0  1  0  0  0
    2.3947   -1.7666    0.0000 C   0  0
    1.2990   -0.7500    0.0000 C   0  0
    1.2990    0.7500    0.0000 C   0  0  2  0  0  0
    2.5981    1.5000    0.0000 C   0  0
    2.5981    3.0000    0.0000 C   0  0
    1.2990    3.7500    0.0000 C   0  0  1  0  0  0
    1.2990    5.2500    0.0000 C   0  0
    0.0000    6.0000    0.0000 C   0  0
   -0.0001    7.5000    0.0000 N   0  0
   -1.2991    8.2500    0.0000 C   0  0
   -2.5981    7.5000    0.0000 C   0  0
   -2.5981    6.0000    0.0000 N   0  0
   -1.2991    5.2500    0.0000 C   0  0
   -1.2991    3.7500    0.0000 C   0  0
    0.0000    3.0000    0.0000 C   0  0  1  0  0  0
   -1.2991    2.2500    0.0000 C   0  0
    0.0000    1.5000    0.0000 C   0  0  1  0  0  0
   -1.2990    0.7500    0.0000 C   0  0
   -1.2990   -0.7500    0.0000 C   0  0  1  0  0  0
   -2.5981   -1.5000    0.0000 O   0  0
    0.0000   -1.5000    0.0000 C   0  0  1  0  0  0
   -0.8141   -2.0807    0.0000 C   0  0
    0.2851   -2.9666    0.0000 C   0  0  1  0  0  0
   -0.7064   -2.8366    0.0000 O   0  0
   -3.8972    8.2500    0.0000 C   0  0
   -3.8972    9.7500    0.0000 C   0  0  2  0  0  0
   -5.1963   10.4999    0.0000 C   0  0
   -5.1963   11.9999    0.0000 C   0  0
   -3.8972   12.7500    0.0000 C   0  0  1  0  0  0
   -3.8973   14.2500    0.0000 C   0  0
   -4.5609   15.8493    0.0000 C   0  0
   -3.5286   16.9376    0.0000 C   0  0
   -1.8940   16.3783    0.0000 C   0  0  2  0  0  0
   -2.6440   17.6773    0.0000 C   0  0  2  0  0  0
   -1.8940   18.9764    0.0000 C   0  0
   -4.1440   17.6773    0.0000 C   0  0  1  0  0  0
   -4.8940   16.3782    0.0000 O   0  0
   -4.1440   15.0792    0.0000 C   0  0
   -2.5982   15.0000    0.0000 C   0  0  2  0  0  0
   -1.2992   14.2500    0.0000 C   0  0
   -0.0001   15.0000    0.0000 O   0  0
   -1.2992   12.7500    0.0000 C   0  0
   -2.5982   12.0000    0.0000 C   0  0  1  0  0  0
   -1.7322   11.5000    0.0000 O   0  0
   -2.5982   10.5000    0.0000 C   0  0  2  0  0  0
   -3.4642   11.0000    0.0000 C   0  0
   -1.2991    9.7500    0.0000 C   0  0
   -5.3575   18.6285    0.0000 O   0  0
   -4.8940   20.0551    0.0000 C   0  0
   -4.2635   21.4161    0.0000 C   0  0
   -6.3833   19.8762    0.0000 C   0  0
   -3.3940   20.0551    0.0000 C   0  0  1  0  0  0
   -2.5124   21.2687    0.0000 C   0  0
   -2.9305   18.6285    0.0000 C   0  0  1  0  0  0
   -1.4957   18.1911    0.0000 O   0  0
    1.0928   -6.8249    0.0000 O   0  0
   -0.1571   -7.6541    0.0000 C   0  0  2  0  0  0
   -1.4977   -8.3271    0.0000 C   0  0
    1.1109   -8.4318    0.0000 C   0  0
    1.0957   -9.9317    0.0000 O   0  0
   -1.3321   -6.7217    0.0000 C   0  0
   -0.8083   -5.3161    0.0000 C   0  0  1  0  0  0
   -1.6592   -4.0808    0.0000 O   0  0
  2  1  1  1
  2  3  1  0
  3  4  1  1
  5  4  1  6
  5  6  1  0
  6  7  2  0
  7  8  1  0
  8  9  1  1
  9 10  1  0
 11 10  1  6
 11 12  1  0
 12 13  1  0
 13 14  2  0
 14 15  1  0
 15 16  2  0
 16 17  1  0
 17 18  2  0
 18 13  1  0
 18 19  1  0
 19 20  1  0
 20 11  1  0
 20 21  1  6
 20 22  1  0
 22  8  1  0
 22 23  1  6
 23 24  1  0
 24 25  1  6
 24 26  1  0
 26  7  1  0
 26 27  1  6
 26 28  1  0
 28  5  1  0
 28  2  1  0
 28 29  1  1
 16 30  1  0
 31 30  1  6
 31 32  1  0
 32 33  1  0
 34 33  1  1
 34 35  1  0
 35 36  2  0
 36 37  1  0
 38 37  1  1
 38 39  1  0
 39 40  1  1
 39 41  1  0
 41 42  1  6
 42 43  1  0
 44 43  1  6
 44 35  1  0
 44 38  1  0
 44 45  1  0
 45 46  2  0
 45 47  1  0
 47 48  1  0
 48 34  1  0
 48 49  1  1
 48 50  1  0
 50 31  1  0
 50 51  1  6
 50 52  1  0
 52 15  1  0
 41 53  1  0
 53 54  1  0
 54 55  1  0
 54 56  1  0
 54 57  1  0
 57 58  1  1
 57 59  1  0
 59 41  1  0
 59 60  1  1
  3 61  1  0
 61 62  1  0
 62 63  1  1
 62 64  1  0
 64 65  1  0
 62 66  1  0
 66 67  1  0
 67  3  1  0
 67 68  1  1
M  END
> <Smiles>
C[C@@H]1[C@]2(O[C@H]3C=C4[C@@H]5CC[C@H]6Cc7nc8c(nc7C[C@]6(C)[C@H]5C[C@@H](O)[C@]4(C)[C@]31O)C[C@@H]1CC[C@H]3C4=CC[C@@H]5[C@H](C)[C@@]6(OC[C@]45C(=O)C[C@]3(O)[C@@]1(C)C8)OC(C)(C)[C@@H](C)[C@H]6O)O[C@](
C)(CO)C[C@H]2O

> <ID>
CHEMBL430030

> <standard_value>
0.58

> <IC50_uM>
0.00058

> <Activity>
Yes

> <pIC50>
9.236572006

> <BCI>
1

$$$$

  SciTegic03012415362D

 53 55  0  0  1  0            999 V2000
   14.9628   -5.2771    0.0000 C   0  0
   13.8401   -4.2824    0.0000 C   0  0
   12.4161   -4.7567    0.0000 C   0  0  2  0  0  0
   12.1156   -6.2263    0.0000 C   0  0
   11.2928   -3.7614    0.0000 C   0  0  1  0  0  0
    9.8684   -4.2341    0.0000 C   0  0  1  0  0  0
    9.5646   -5.7039    0.0000 C   0  0
    8.1402   -6.1766    0.0000 C   0  0
    7.0195   -5.1796    0.0000 O   0  0
    7.8369   -7.6438    0.0000 N   0  0
    8.8406   -8.7585    0.0000 C   0  0
    8.0906  -10.0575    0.0000 C   0  0
    6.6233   -9.7456    0.0000 C   0  0
    6.4855   -8.2648    0.0000 C   0  0  1  0  0  0
    5.1873   -7.5117    0.0000 C   0  0  2  0  0  0
    3.8877   -8.2626    0.0000 O   0  0
    3.8873   -9.7626    0.0000 C   0  0
    5.1894   -6.0109    0.0000 C   0  0  1  0  0  0
    6.4897   -5.2632    0.0000 C   0  0
    3.8912   -5.2578    0.0000 C   0  0
    2.5909   -6.0056    0.0000 O   0  0
    3.8933   -3.7570    0.0000 N   0  0
    2.5951   -3.0039    0.0000 C   0  0
    2.5973   -1.5031    0.0000 C   0  0
    1.2990   -0.7500    0.0000 C   0  0
    1.2990    0.7500    0.0000 C   0  0
    0.0000    1.5000    0.0000 C   0  0
   -1.2990    0.7500    0.0000 C   0  0
   -2.5981    1.5000    0.0000 C   0  0
   -3.8971    0.7500    0.0000 C   0  0
   -3.8971   -0.7500    0.0000 C   0  0
   -2.5981   -1.5000    0.0000 C   0  0
   -1.2990   -0.7500    0.0000 C   0  0
    0.0000   -1.5000    0.0000 N   0  0
    8.7491   -3.2342    0.0000 O   0  0
    9.0543   -1.7656    0.0000 C   0  0
   11.5966   -2.2916    0.0000 N   0  0
   10.4759   -1.2946    0.0000 C   0  0
   13.0210   -1.8189    0.0000 C   0  0
   14.1417   -2.8159    0.0000 O   0  0
   13.3248   -0.3491    0.0000 C   0  0  1  0  0  0
   14.7492    0.1236    0.0000 N   0  0
   15.0529    1.5933    0.0000 C   0  0
   13.9323    2.5904    0.0000 O   0  0
   16.4774    2.0661    0.0000 C   0  0  1  0  0  0
   16.7811    3.5358    0.0000 N   0  0
   18.2048    4.0083    0.0000 C   0  0
   17.6007    1.0708    0.0000 C   0  0
   19.0239    1.5448    0.0000 C   0  0
   17.3002   -0.3988    0.0000 C   0  0
   12.2055    0.6508    0.0000 C   0  0
   12.5107    2.1194    0.0000 C   0  0
   10.7809    0.1812    0.0000 C   0  0
  1  2  1  0
  2  3  1  0
  3  4  1  6
  3  5  1  0
  5  6  1  0
  6  7  1  1
  7  8  1  0
  8  9  2  0
  8 10  1  0
 10 11  1  0
 11 12  1  0
 12 13  1  0
 14 13  1  1
 14 10  1  0
 14 15  1  0
 15 16  1  6
 16 17  1  0
 15 18  1  0
 18 19  1  6
 18 20  1  0
 20 21  2  0
 20 22  1  0
 22 23  1  0
 23 24  1  0
 24 25  1  0
 25 26  2  0
 26 27  1  0
 27 28  2  0
 28 29  1  0
 29 30  2  0
 30 31  1  0
 31 32  2  0
 32 33  1  0
 33 28  1  0
 33 34  2  0
 34 25  1  0
  6 35  1  0
 35 36  1  0
  5 37  1  1
 37 38  1  0
 37 39  1  0
 39 40  2  0
 39 41  1  0
 41 42  1  6
 42 43  1  0
 43 44  2  0
 43 45  1  0
 45 46  1  1
 46 47  1  0
 45 48  1  0
 48 49  1  0
 48 50  1  0
 41 51  1  0
 51 52  1  0
 51 53  1  0
M  END
> <Smiles>
CC[C@H](C)[C@@H]([C@@H](CC(=O)N1CCC[C@H]1[C@H](OC)[C@@H](C)C(=O)NCCc1ccc2ccccc2n1)OC)N(C)C(=O)[C@@H](NC(=O)[C@@H](NC)C(C)C)C(C)C

> <ID>
CHEMBL4168091

> <standard_value>
1.22

> <IC50_uM>
0.00122

> <Activity>
Yes

> <pIC50>
8.913640169

> <BCI>
1

$$$$

  SciTegic03012415362D

 81 81  0  0  1  0            999 V2000
    3.0021   12.0680    0.0000 C   0  0
    2.4917   10.6575    0.0000 C   0  0
    3.4579    9.5090    0.0000 C   0  0  2  0  0  0
    4.9347    9.7719    0.0000 C   0  0
    2.9432    8.0863    0.0000 C   0  0  1  0  0  0
    1.4942    8.4746    0.0000 O   0  0
    0.0000    8.6053    0.0000 C   0  0
   -0.0001   10.1053    0.0000 O   0  0
   -1.4943    8.4746    0.0000 C   0  0  2  0  0  0
   -1.7599    9.9640    0.0000 C   0  0
   -3.1702   10.4752    0.0000 C   0  0
   -0.6124   10.9301    0.0000 C   0  0
   -2.9432    8.0863    0.0000 N   0  0
   -4.3027    7.4524    0.0000 C   0  0
   -5.0527    8.7514    0.0000 O   0  0
   -5.5314    6.5920    0.0000 C   0  0  2  0  0  0
   -6.4956    7.7411    0.0000 C   0  0
   -6.5921    5.5313    0.0000 O   0  0
   -7.4524    4.3026    0.0000 C   0  0
   -8.7515    5.0526    0.0000 O   0  0
   -8.0863    2.9431    0.0000 C   0  0  1  0  0  0
   -9.5091    3.4579    0.0000 C   0  0
  -10.6569    2.4922    0.0000 C   0  0
   -9.7720    4.9347    0.0000 C   0  0
   -8.4746    1.4943    0.0000 N   0  0
   -8.6053    0.0000    0.0000 C   0  0
  -10.1053    0.0000    0.0000 O   0  0
   -8.4746   -1.4943    0.0000 C   0  0  1  0  0  0
   -9.9642   -1.7591    0.0000 C   0  0  1  0  0  0
  -10.4748   -3.1696    0.0000 C   0  0
  -10.9312   -0.6114    0.0000 C   0  0
  -12.4081   -0.8740    0.0000 C   0  0
   -8.0863   -2.9432    0.0000 O   0  0
   -7.4524   -4.3027    0.0000 C   0  0
   -8.7514   -5.0527    0.0000 O   0  0
   -6.5920   -5.5314    0.0000 C   0  0  2  0  0  0
   -7.7491   -6.5062    0.0000 C   0  0
   -7.4867   -7.9830    0.0000 C   0  0
   -9.1595   -5.9954    0.0000 C   0  0
   -5.5314   -6.5921    0.0000 N   0  0
   -4.3026   -7.4524    0.0000 C   0  0
   -5.0526   -8.7515    0.0000 O   0  0
   -2.9432   -8.0863    0.0000 C   0  0  2  0  0  0
   -3.4562   -9.4959    0.0000 C   0  0
   -1.4943   -8.4746    0.0000 O   0  0
    0.0000   -8.6053    0.0000 C   0  0
    0.0000  -10.1053    0.0000 O   0  0
    1.4943   -8.4746    0.0000 C   0  0  1  0  0  0
    1.7599   -9.9640    0.0000 C   0  0
    3.1701  -10.4752    0.0000 C   0  0
    0.6124  -10.9301    0.0000 C   0  0
    2.9432   -8.0863    0.0000 N   0  0
    4.3027   -7.4524    0.0000 C   0  0
    5.0527   -8.7514    0.0000 O   0  0
    5.5314   -6.5920    0.0000 C   0  0  1  0  0  0
    6.5017   -7.7529    0.0000 C   0  0
    5.9865   -9.1625    0.0000 C   0  0
    6.9485  -10.3135    0.0000 C   0  0
    4.5089   -9.4206    0.0000 C   0  0
    6.5920   -5.5314    0.0000 O   0  0
    7.4524   -4.3026    0.0000 C   0  0
    8.7514   -5.0526    0.0000 O   0  0
    8.0863   -2.9432    0.0000 C   0  0  2  0  0  0
    9.5091   -3.4579    0.0000 C   0  0
   10.6569   -2.4922    0.0000 C   0  0
    9.7719   -4.9347    0.0000 C   0  0
    8.4746   -1.4943    0.0000 N   0  0
    8.6053    0.0000    0.0000 C   0  0
   10.1053    0.0000    0.0000 O   0  0
    8.4746    1.4943    0.0000 C   0  0  2  0  0  0
    9.9518    1.7548    0.0000 C   0  0
    8.0863    2.9432    0.0000 O   0  0
    7.4524    4.3027    0.0000 C   0  0
    8.7514    5.0527    0.0000 O   0  0
    6.5920    5.5314    0.0000 C   0  0  1  0  0  0
    7.7492    6.5061    0.0000 C   0  0
    7.4868    7.9830    0.0000 C   0  0
    9.1595    5.9954    0.0000 C   0  0
    5.5314    6.5920    0.0000 N   0  0
    4.3026    7.4524    0.0000 C   0  0
    5.0526    8.7514    0.0000 O   0  0
  1  2  1  0
  2  3  1  0
  3  4  1  6
  3  5  1  0
  5  6  1  6
  6  7  1  0
  7  8  2  0
  7  9  1  0
  9 10  1  1
 10 11  1  0
 10 12  1  0
  9 13  1  0
 13 14  1  0
 14 15  2  0
 14 16  1  0
 16 17  1  1
 16 18  1  0
 18 19  1  0
 19 20  2  0
 19 21  1  0
 21 22  1  6
 22 23  1  0
 22 24  1  0
 21 25  1  0
 25 26  1  0
 26 27  2  0
 26 28  1  0
 28 29  1  0
 29 30  1  1
 29 31  1  0
 31 32  1  0
 28 33  1  6
 33 34  1  0
 34 35  2  0
 34 36  1  0
 36 37  1  1
 37 38  1  0
 37 39  1  0
 36 40  1  0
 40 41  1  0
 41 42  2  0
 41 43  1  0
 43 44  1  1
 43 45  1  0
 45 46  1  0
 46 47  2  0
 46 48  1  0
 48 49  1  6
 49 50  1  0
 49 51  1  0
 48 52  1  0
 52 53  1  0
 53 54  2  0
 53 55  1  0
 55 56  1  6
 56 57  1  0
 57 58  1  0
 57 59  1  0
 55 60  1  0
 60 61  1  0
 61 62  2  0
 61 63  1  0
 63 64  1  1
 64 65  1  0
 64 66  1  0
 63 67  1  0
 67 68  1  0
 68 69  2  0
 68 70  1  0
 70 71  1  1
 70 72  1  0
 72 73  1  0
 73 74  2  0
 73 75  1  0
 75 76  1  6
 76 77  1  0
 76 78  1  0
 75 79  1  0
 79 80  1  0
 80  5  1  0
 80 81  2  0
M  END
> <Smiles>
CC[C@H](C)[C@H]1OC(=O)[C@H](C(C)C)NC(=O)[C@H](C)OC(=O)[C@@H](C(C)C)NC(=O)[C@@H]([C@@H](C)CC)OC(=O)[C@H](C(C)C)NC(=O)[C@H](C)OC(=O)[C@@H](C(C)C)NC(=O)[C@@H](CC(C)C)OC(=O)[C@H](C(C)C)NC(=O)[C@H](C)OC(=O
)[C@@H](C(C)C)NC1=O

> <ID>
CHEMBL2448555

> <standard_value>
1.6

> <IC50_uM>
0.0016

> <Activity>
Yes

> <pIC50>
8.795880017

> <BCI>
1

$$$$

  SciTegic03012415362D

 90 91  0  0  1  0            999 V2000
    5.4457   11.1839    0.0000 C   0  0
    4.9353    9.7734    0.0000 C   0  0
    5.9020    8.6265    0.0000 C   0  0
    3.4579    9.5090    0.0000 C   0  0
    2.9432    8.0863    0.0000 C   0  0  1  0  0  0
    1.4942    8.4746    0.0000 O   0  0
    0.0000    8.6053    0.0000 C   0  0
   -0.0001   10.1053    0.0000 O   0  0
   -1.4943    8.4746    0.0000 C   0  0  2  0  0  0
   -1.7542    9.9650    0.0000 C   0  0
   -0.6032   10.9283    0.0000 C   0  0
   -0.8587   12.4064    0.0000 C   0  0
    0.2936   13.3667    0.0000 C   0  0
    1.7014   12.8490    0.0000 C   0  0
    2.8563   13.8075    0.0000 O   0  0
    4.2641   13.2875    0.0000 C   0  0
    5.4184   14.2455    0.0000 C   0  0
    4.5171   11.8090    0.0000 C   0  0
    5.6710   12.7671    0.0000 C   0  0
    1.9569   11.3709    0.0000 C   0  0
    0.8047   10.4106    0.0000 C   0  0
   -2.9432    8.0863    0.0000 N   0  0
   -4.3027    7.4524    0.0000 C   0  0
   -5.0527    8.7514    0.0000 O   0  0
   -5.5314    6.5920    0.0000 C   0  0  2  0  0  0
   -6.4956    7.7411    0.0000 C   0  0
   -6.5921    5.5313    0.0000 O   0  0
   -7.4524    4.3026    0.0000 C   0  0
   -8.7515    5.0526    0.0000 O   0  0
   -8.0863    2.9431    0.0000 C   0  0  1  0  0  0
   -9.5091    3.4579    0.0000 C   0  0
  -10.6569    2.4922    0.0000 C   0  0
   -9.7720    4.9347    0.0000 C   0  0
   -8.4746    1.4943    0.0000 N   0  0
   -8.6053    0.0000    0.0000 C   0  0
  -10.1053    0.0000    0.0000 O   0  0
   -8.4746   -1.4943    0.0000 C   0  0  1  0  0  0
   -9.9650   -1.7542    0.0000 C   0  0
  -10.9283   -0.6032    0.0000 C   0  0
  -12.4060   -0.8608    0.0000 C   0  0
  -10.4129    0.8055    0.0000 C   0  0
   -8.0863   -2.9432    0.0000 O   0  0
   -7.4524   -4.3027    0.0000 C   0  0
   -8.7514   -5.0527    0.0000 O   0  0
   -6.5920   -5.5314    0.0000 C   0  0  2  0  0  0
   -7.7491   -6.5062    0.0000 C   0  0
   -7.4867   -7.9830    0.0000 C   0  0
   -9.1595   -5.9954    0.0000 C   0  0
   -5.5314   -6.5921    0.0000 N   0  0
   -4.3026   -7.4524    0.0000 C   0  0
   -5.0526   -8.7515    0.0000 O   0  0
   -2.9432   -8.0863    0.0000 C   0  0  2  0  0  0
   -3.4562   -9.4959    0.0000 C   0  0
   -1.4943   -8.4746    0.0000 O   0  0
    0.0000   -8.6053    0.0000 C   0  0
    0.0000  -10.1053    0.0000 O   0  0
    1.4943   -8.4746    0.0000 C   0  0  1  0  0  0
    1.7599   -9.9640    0.0000 C   0  0
    3.1701  -10.4752    0.0000 C   0  0
    0.6124  -10.9301    0.0000 C   0  0
    2.9432   -8.0863    0.0000 N   0  0
    4.3027   -7.4524    0.0000 C   0  0
    5.0527   -8.7514    0.0000 O   0  0
    5.5314   -6.5920    0.0000 C   0  0  1  0  0  0
    6.5017   -7.7529    0.0000 C   0  0
    5.9865   -9.1625    0.0000 C   0  0
    6.9485  -10.3135    0.0000 C   0  0
    4.5089   -9.4206    0.0000 C   0  0
    6.5920   -5.5314    0.0000 O   0  0
    7.4524   -4.3026    0.0000 C   0  0
    8.7514   -5.0526    0.0000 O   0  0
    8.0863   -2.9432    0.0000 C   0  0  2  0  0  0
    9.5091   -3.4579    0.0000 C   0  0
   10.6569   -2.4922    0.0000 C   0  0
    9.7719   -4.9347    0.0000 C   0  0
    8.4746   -1.4943    0.0000 N   0  0
    8.6053    0.0000    0.0000 C   0  0
   10.1053    0.0000    0.0000 O   0  0
    8.4746    1.4943    0.0000 C   0  0  2  0  0  0
    9.9518    1.7548    0.0000 C   0  0
    8.0863    2.9432    0.0000 O   0  0
    7.4524    4.3027    0.0000 C   0  0
    8.7514    5.0527    0.0000 O   0  0
    6.5920    5.5314    0.0000 C   0  0  1  0  0  0
    7.7492    6.5061    0.0000 C   0  0
    7.4868    7.9830    0.0000 C   0  0
    9.1595    5.9954    0.0000 C   0  0
    5.5314    6.5920    0.0000 N   0  0
    4.3026    7.4524    0.0000 C   0  0
    5.0526    8.7514    0.0000 O   0  0
  1  2  1  0
  2  3  1  0
  2  4  1  0
  5  4  1  6
  5  6  1  0
  6  7  1  0
  7  8  2  0
  7  9  1  0
  9 10  1  1
 10 11  1  0
 11 12  2  0
 12 13  1  0
 13 14  2  0
 14 15  1  0
 15 16  1  0
 16 17  1  0
 16 18  1  0
 16 19  1  0
 14 20  1  0
 20 21  2  0
 21 11  1  0
  9 22  1  0
 22 23  1  0
 23 24  2  0
 23 25  1  0
 25 26  1  1
 25 27  1  0
 27 28  1  0
 28 29  2  0
 28 30  1  0
 30 31  1  6
 31 32  1  0
 31 33  1  0
 30 34  1  0
 34 35  1  0
 35 36  2  0
 35 37  1  0
 37 38  1  6
 38 39  1  0
 39 40  1  0
 39 41  1  0
 37 42  1  0
 42 43  1  0
 43 44  2  0
 43 45  1  0
 45 46  1  1
 46 47  1  0
 46 48  1  0
 45 49  1  0
 49 50  1  0
 50 51  2  0
 50 52  1  0
 52 53  1  1
 52 54  1  0
 54 55  1  0
 55 56  2  0
 55 57  1  0
 57 58  1  6
 58 59  1  0
 58 60  1  0
 57 61  1  0
 61 62  1  0
 62 63  2  0
 62 64  1  0
 64 65  1  6
 65 66  1  0
 66 67  1  0
 66 68  1  0
 64 69  1  0
 69 70  1  0
 70 71  2  0
 70 72  1  0
 72 73  1  1
 73 74  1  0
 73 75  1  0
 72 76  1  0
 76 77  1  0
 77 78  2  0
 77 79  1  0
 79 80  1  1
 79 81  1  0
 81 82  1  0
 82 83  2  0
 82 84  1  0
 84 85  1  6
 85 86  1  0
 85 87  1  0
 84 88  1  0
 88 89  1  0
 89  5  1  0
 89 90  2  0
M  END
> <Smiles>
CC(C)C[C@H]1OC(=O)[C@H](Cc2ccc(OC(C)(C)C)cc2)NC(=O)[C@H](C)OC(=O)[C@@H](C(C)C)NC(=O)[C@@H](CC(C)C)OC(=O)[C@H](C(C)C)NC(=O)[C@H](C)OC(=O)[C@@H](C(C)C)NC(=O)[C@@H](CC(C)C)OC(=O)[C@H](C(C)C)NC(=O)[C@H](C
)OC(=O)[C@@H](C(C)C)NC1=O

> <ID>
CHEMBL3577195

> <standard_value>
2

> <IC50_uM>
0.002

> <Activity>
Yes

> <pIC50>
8.698970004

> <BCI>
1

$$$$

  SciTegic03012415362D

 89 91  0  0  1  0            999 V2000
    3.0021   12.0680    0.0000 C   0  0
    2.4917   10.6575    0.0000 C   0  0
    1.0150   10.3947    0.0000 C   0  0
    3.4579    9.5090    0.0000 C   0  0
    2.9432    8.0863    0.0000 C   0  0  1  0  0  0
    1.4942    8.4746    0.0000 O   0  0
    0.0000    8.6053    0.0000 C   0  0
   -0.0001   10.1053    0.0000 O   0  0
   -1.4943    8.4746    0.0000 C   0  0  2  0  0  0
   -1.7599    9.9640    0.0000 C   0  0
   -3.1702   10.4752    0.0000 C   0  0
   -0.6124   10.9301    0.0000 C   0  0
   -2.9432    8.0863    0.0000 N   0  0
   -4.3027    7.4524    0.0000 C   0  0
   -5.0527    8.7514    0.0000 O   0  0
   -5.5314    6.5920    0.0000 C   0  0  2  0  0  0
   -6.4956    7.7411    0.0000 C   0  0
   -6.5921    5.5313    0.0000 O   0  0
   -7.4524    4.3026    0.0000 C   0  0
   -8.7515    5.0526    0.0000 O   0  0
   -8.0863    2.9431    0.0000 C   0  0  1  0  0  0
   -9.5091    3.4579    0.0000 C   0  0
  -10.6569    2.4922    0.0000 C   0  0
   -9.7720    4.9347    0.0000 C   0  0
   -8.4746    1.4943    0.0000 N   0  0
   -8.6053    0.0000    0.0000 C   0  0
  -10.1053    0.0000    0.0000 O   0  0
   -8.4746   -1.4943    0.0000 C   0  0  1  0  0  0
   -9.9650   -1.7542    0.0000 C   0  0
  -10.9283   -0.6032    0.0000 C   0  0
  -12.4060   -0.8608    0.0000 C   0  0
  -10.4129    0.8055    0.0000 C   0  0
   -8.0863   -2.9432    0.0000 O   0  0
   -7.4524   -4.3027    0.0000 C   0  0
   -8.7514   -5.0527    0.0000 O   0  0
   -6.5920   -5.5314    0.0000 C   0  0  2  0  0  0
   -7.7491   -6.5062    0.0000 C   0  0
   -7.4867   -7.9830    0.0000 C   0  0
   -9.1595   -5.9954    0.0000 C   0  0
   -5.5314   -6.5921    0.0000 N   0  0
   -4.3026   -7.4524    0.0000 C   0  0
   -5.0526   -8.7515    0.0000 O   0  0
   -2.9432   -8.0863    0.0000 C   0  0  2  0  0  0
   -3.4562   -9.4959    0.0000 C   0  0
   -1.4943   -8.4746    0.0000 O   0  0
    0.0000   -8.6053    0.0000 C   0  0
    0.0000  -10.1053    0.0000 O   0  0
    1.4943   -8.4746    0.0000 C   0  0  1  0  0  0
    1.7599   -9.9640    0.0000 C   0  0
    3.1701  -10.4752    0.0000 C   0  0
    0.6124  -10.9301    0.0000 C   0  0
    2.9432   -8.0863    0.0000 N   0  0
    4.3027   -7.4524    0.0000 C   0  0
    5.0527   -8.7514    0.0000 O   0  0
    5.5314   -6.5920    0.0000 C   0  0  1  0  0  0
    6.5017   -7.7529    0.0000 C   0  0
    5.9865   -9.1625    0.0000 C   0  0
    6.9468  -10.3149    0.0000 C   0  0
    6.4291  -11.7227    0.0000 C   0  0
    4.9510  -11.9783    0.0000 C   0  0
    3.9907  -10.8260    0.0000 C   0  0
    4.5084   -9.4182    0.0000 C   0  0
    6.5920   -5.5314    0.0000 O   0  0
    7.4524   -4.3026    0.0000 C   0  0
    8.7514   -5.0526    0.0000 O   0  0
    8.0863   -2.9432    0.0000 C   0  0  2  0  0  0
    9.5071   -3.4634    0.0000 C   0  0
    9.7658   -4.9417    0.0000 C   0  0
   11.1736   -5.4596    0.0000 C   0  0
   11.4291   -6.9376    0.0000 C   0  0
   10.2768   -7.8980    0.0000 C   0  0
   10.5324   -9.3761    0.0000 O   0  0
    8.8690   -7.3802    0.0000 C   0  0
    8.6135   -5.9022    0.0000 C   0  0
    8.4746   -1.4943    0.0000 N   0  0
    8.6053    0.0000    0.0000 C   0  0
   10.1053    0.0000    0.0000 O   0  0
    8.4746    1.4943    0.0000 C   0  0  2  0  0  0
    9.9518    1.7548    0.0000 C   0  0
    8.0863    2.9432    0.0000 O   0  0
    7.4524    4.3027    0.0000 C   0  0
    8.7514    5.0527    0.0000 O   0  0
    6.5920    5.5314    0.0000 C   0  0  1  0  0  0
    7.7492    6.5061    0.0000 C   0  0
    7.4868    7.9830    0.0000 C   0  0
    9.1595    5.9954    0.0000 C   0  0
    5.5314    6.5920    0.0000 N   0  0
    4.3026    7.4524    0.0000 C   0  0
    5.0526    8.7514    0.0000 O   0  0
  1  2  1  0
  2  3  1  0
  2  4  1  0
  5  4  1  6
  5  6  1  0
  6  7  1  0
  7  8  2  0
  7  9  1  0
  9 10  1  1
 10 11  1  0
 10 12  1  0
  9 13  1  0
 13 14  1  0
 14 15  2  0
 14 16  1  0
 16 17  1  1
 16 18  1  0
 18 19  1  0
 19 20  2  0
 19 21  1  0
 21 22  1  6
 22 23  1  0
 22 24  1  0
 21 25  1  0
 25 26  1  0
 26 27  2  0
 26 28  1  0
 28 29  1  6
 29 30  1  0
 30 31  1  0
 30 32  1  0
 28 33  1  0
 33 34  1  0
 34 35  2  0
 34 36  1  0
 36 37  1  1
 37 38  1  0
 37 39  1  0
 36 40  1  0
 40 41  1  0
 41 42  2  0
 41 43  1  0
 43 44  1  1
 43 45  1  0
 45 46  1  0
 46 47  2  0
 46 48  1  0
 48 49  1  6
 49 50  1  0
 49 51  1  0
 48 52  1  0
 52 53  1  0
 53 54  2  0
 53 55  1  0
 55 56  1  6
 56 57  1  0
 57 58  1  0
 58 59  1  0
 59 60  1  0
 60 61  1  0
 61 62  1  0
 62 57  1  0
 55 63  1  0
 63 64  1  0
 64 65  2  0
 64 66  1  0
 66 67  1  1
 67 68  1  0
 68 69  2  0
 69 70  1  0
 70 71  2  0
 71 72  1  0
 71 73  1  0
 73 74  2  0
 74 68  1  0
 66 75  1  0
 75 76  1  0
 76 77  2  0
 76 78  1  0
 78 79  1  1
 78 80  1  0
 80 81  1  0
 81 82  2  0
 81 83  1  0
 83 84  1  6
 84 85  1  0
 84 86  1  0
 83 87  1  0
 87 88  1  0
 88  5  1  0
 88 89  2  0
M  END
> <Smiles>
CC(C)C[C@H]1OC(=O)[C@H](C(C)C)NC(=O)[C@H](C)OC(=O)[C@@H](C(C)C)NC(=O)[C@@H](CC(C)C)OC(=O)[C@H](C(C)C)NC(=O)[C@H](C)OC(=O)[C@@H](C(C)C)NC(=O)[C@@H](CC2CCCCC2)OC(=O)[C@H](Cc2ccc(O)cc2)NC(=O)[C@H](C)OC(=
O)[C@@H](C(C)C)NC1=O

> <ID>
CHEMBL3577206

> <standard_value>
2.4

> <IC50_uM>
0.0024

> <Activity>
Yes

> <pIC50>
8.619788758

> <BCI>
1

$$$$

  SciTegic03012415362D

 81 81  0  0  1  0            999 V2000
    3.0021   12.0680    0.0000 C   0  0
    2.4917   10.6575    0.0000 C   0  0
    1.0150   10.3947    0.0000 C   0  0
    3.4579    9.5090    0.0000 C   0  0
    2.9432    8.0863    0.0000 C   0  0  1  0  0  0
    1.4942    8.4746    0.0000 O   0  0
    0.0000    8.6053    0.0000 C   0  0
   -0.0001   10.1053    0.0000 O   0  0
   -1.4943    8.4746    0.0000 C   0  0  2  0  0  0
   -1.7599    9.9640    0.0000 C   0  0
   -3.1702   10.4752    0.0000 C   0  0
   -0.6124   10.9301    0.0000 C   0  0
   -2.9432    8.0863    0.0000 N   0  0
   -4.3027    7.4524    0.0000 C   0  0
   -5.0527    8.7514    0.0000 O   0  0
   -5.5314    6.5920    0.0000 C   0  0  2  0  0  0
   -6.4956    7.7411    0.0000 C   0  0
   -6.5921    5.5313    0.0000 O   0  0
   -7.4524    4.3026    0.0000 C   0  0
   -8.7515    5.0526    0.0000 O   0  0
   -8.0863    2.9431    0.0000 C   0  0  1  0  0  0
   -9.5091    3.4579    0.0000 C   0  0
  -10.6569    2.4922    0.0000 C   0  0
   -9.7720    4.9347    0.0000 C   0  0
   -8.4746    1.4943    0.0000 N   0  0
   -8.6053    0.0000    0.0000 C   0  0
  -10.1053    0.0000    0.0000 O   0  0
   -8.4746   -1.4943    0.0000 C   0  0  1  0  0  0
   -9.9650   -1.7542    0.0000 C   0  0
  -10.9283   -0.6032    0.0000 C   0  0
  -12.4060   -0.8608    0.0000 C   0  0
  -10.4129    0.8055    0.0000 C   0  0
   -8.0863   -2.9432    0.0000 O   0  0
   -7.4524   -4.3027    0.0000 C   0  0
   -8.7514   -5.0527    0.0000 O   0  0
   -6.5920   -5.5314    0.0000 C   0  0  2  0  0  0
   -7.7497   -6.5055    0.0000 C   0  0  1  0  0  0
   -7.4866   -7.9823    0.0000 C   0  0
   -9.1603   -5.9954    0.0000 O   0  0
   -5.5314   -6.5921    0.0000 N   0  0
   -4.3026   -7.4524    0.0000 C   0  0
   -5.0526   -8.7515    0.0000 O   0  0
   -2.9432   -8.0863    0.0000 C   0  0  2  0  0  0
   -3.4562   -9.4959    0.0000 C   0  0
   -1.4943   -8.4746    0.0000 O   0  0
    0.0000   -8.6053    0.0000 C   0  0
    0.0000  -10.1053    0.0000 O   0  0
    1.4943   -8.4746    0.0000 C   0  0  1  0  0  0
    1.7599   -9.9640    0.0000 C   0  0
    3.1701  -10.4752    0.0000 C   0  0
    0.6124  -10.9301    0.0000 C   0  0
    2.9432   -8.0863    0.0000 N   0  0
    4.3027   -7.4524    0.0000 C   0  0
    5.0527   -8.7514    0.0000 O   0  0
    5.5314   -6.5920    0.0000 C   0  0  1  0  0  0
    6.5017   -7.7529    0.0000 C   0  0
    5.9865   -9.1625    0.0000 C   0  0
    6.9485  -10.3135    0.0000 C   0  0
    4.5089   -9.4206    0.0000 C   0  0
    6.5920   -5.5314    0.0000 O   0  0
    7.4524   -4.3026    0.0000 C   0  0
    8.7514   -5.0526    0.0000 O   0  0
    8.0863   -2.9432    0.0000 C   0  0  2  0  0  0
    9.5091   -3.4579    0.0000 C   0  0
   10.6569   -2.4922    0.0000 C   0  0
    9.7719   -4.9347    0.0000 C   0  0
    8.4746   -1.4943    0.0000 N   0  0
    8.6053    0.0000    0.0000 C   0  0
   10.1053    0.0000    0.0000 O   0  0
    8.4746    1.4943    0.0000 C   0  0  2  0  0  0
    9.9518    1.7548    0.0000 C   0  0
    8.0863    2.9432    0.0000 O   0  0
    7.4524    4.3027    0.0000 C   0  0
    8.7514    5.0527    0.0000 O   0  0
    6.5920    5.5314    0.0000 C   0  0  1  0  0  0
    7.7492    6.5061    0.0000 C   0  0
    7.4868    7.9830    0.0000 C   0  0
    9.1595    5.9954    0.0000 C   0  0
    5.5314    6.5920    0.0000 N   0  0
    4.3026    7.4524    0.0000 C   0  0
    5.0526    8.7514    0.0000 O   0  0
  1  2  1  0
  2  3  1  0
  2  4  1  0
  5  4  1  6
  5  6  1  0
  6  7  1  0
  7  8  2  0
  7  9  1  0
  9 10  1  1
 10 11  1  0
 10 12  1  0
  9 13  1  0
 13 14  1  0
 14 15  2  0
 14 16  1  0
 16 17  1  1
 16 18  1  0
 18 19  1  0
 19 20  2  0
 19 21  1  0
 21 22  1  6
 22 23  1  0
 22 24  1  0
 21 25  1  0
 25 26  1  0
 26 27  2  0
 26 28  1  0
 28 29  1  6
 29 30  1  0
 30 31  1  0
 30 32  1  0
 28 33  1  0
 33 34  1  0
 34 35  2  0
 34 36  1  0
 36 37  1  0
 37 38  1  1
 37 39  1  0
 36 40  1  1
 40 41  1  0
 41 42  2  0
 41 43  1  0
 43 44  1  1
 43 45  1  0
 45 46  1  0
 46 47  2  0
 46 48  1  0
 48 49  1  6
 49 50  1  0
 49 51  1  0
 48 52  1  0
 52 53  1  0
 53 54  2  0
 53 55  1  0
 55 56  1  6
 56 57  1  0
 57 58  1  0
 57 59  1  0
 55 60  1  0
 60 61  1  0
 61 62  2  0
 61 63  1  0
 63 64  1  1
 64 65  1  0
 64 66  1  0
 63 67  1  0
 67 68  1  0
 68 69  2  0
 68 70  1  0
 70 71  1  1
 70 72  1  0
 72 73  1  0
 73 74  2  0
 73 75  1  0
 75 76  1  6
 76 77  1  0
 76 78  1  0
 75 79  1  0
 79 80  1  0
 80  5  1  0
 80 81  2  0
M  END
> <Smiles>
CC(C)C[C@H]1OC(=O)[C@H](C(C)C)NC(=O)[C@H](C)OC(=O)[C@@H](C(C)C)NC(=O)[C@@H](CC(C)C)OC(=O)[C@H]([C@@H](C)O)NC(=O)[C@H](C)OC(=O)[C@@H](C(C)C)NC(=O)[C@@H](CC(C)C)OC(=O)[C@H](C(C)C)NC(=O)[C@H](C)OC(=O)[C@
@H](C(C)C)NC1=O

> <ID>
CHEMBL3577196

> <standard_value>
2.7

> <IC50_uM>
0.0027

> <Activity>
Yes

> <pIC50>
8.568636236

> <BCI>
1

$$$$

  SciTegic03012415362D

 67 79  0  0  1  0            999 V2000
    2.5981   -1.5000    0.0000 C   0  0
    1.2990   -0.7500    0.0000 C   0  0  2  0  0  0
    1.2990    0.7500    0.0000 C   0  0  1  0  0  0
    2.3947    1.7666    0.0000 C   0  0
    1.7758    3.1330    0.0000 C   0  0
    0.2851    2.9666    0.0000 C   0  0
   -0.8572    3.9479    0.0000 C   0  0  1  0  0  0
   -0.5697    5.4202    0.0000 C   0  0
   -1.7010    6.4052    0.0000 C   0  0
   -3.1197    5.9180    0.0000 C   0  0  1  0  0  0
   -4.2509    6.9030    0.0000 C   0  0
   -5.6696    6.4158    0.0000 C   0  0
   -6.8009    7.4009    0.0000 N   0  0
   -8.2195    6.9137    0.0000 C   0  0
   -8.5070    5.4415    0.0000 C   0  0
   -7.3757    4.4565    0.0000 N   0  0
   -5.9570    4.9436    0.0000 C   0  0
   -4.8258    3.9586    0.0000 C   0  0
   -3.4071    4.4458    0.0000 C   0  0  1  0  0  0
   -3.5987    3.4643    0.0000 C   0  0
   -2.2759    3.4608    0.0000 C   0  0  2  0  0  0
   -1.5217    2.8041    0.0000 O   0  0
   -2.5633    1.9886    0.0000 C   0  0
   -1.4321    1.0035    0.0000 C   0  0
   -1.7173   -0.4691    0.0000 O   0  0
    0.0000    1.5000    0.0000 C   0  0  2  0  0  0
   -1.2990    0.7500    0.0000 C   0  0
   -1.2990   -0.7500    0.0000 O   0  0
    0.0000   -1.5000    0.0000 C   0  0  2  0  0  0
   -0.5753   -2.9306    0.0000 O   0  0
    0.5394   -3.9343    0.0000 C   0  0
   -0.8399   -4.5238    0.0000 C   0  0
    1.7659   -4.7978    0.0000 C   0  0
    1.8384   -3.1842    0.0000 C   0  0
    1.5266   -1.7170    0.0000 C   0  0  1  0  0  0
    2.5504   -0.6208    0.0000 O   0  0
   -9.9256    4.9543    0.0000 C   0  0
  -11.0569    5.9393    0.0000 C   0  0  2  0  0  0
  -12.4756    5.4521    0.0000 C   0  0
  -13.6068    6.4372    0.0000 C   0  0
  -13.3194    7.9094    0.0000 C   0  0  1  0  0  0
  -14.4507    8.8944    0.0000 C   0  0
  -15.9368    8.7356    0.0000 C   0  0
  -16.5609   10.0997    0.0000 C   0  0  2  0  0  0
  -17.8420   10.8614    0.0000 O   0  0
  -17.5305   12.3287    0.0000 C   0  0  1  0  0  0
  -18.0951   13.7613    0.0000 O   0  0
  -19.5946   13.7217    0.0000 C   0  0  2  0  0  0
  -21.0784   13.5019    0.0000 C   0  0
  -19.0038   15.0868    0.0000 C   0  0
  -19.8782   16.3056    0.0000 O   0  0
  -20.0202   12.2833    0.0000 C   0  0
  -18.7838   11.4340    0.0000 C   0  0  1  0  0  0
  -18.7702    9.9341    0.0000 O   0  0
  -16.0388   12.4859    0.0000 C   0  0  1  0  0  0
  -15.2777   13.7785    0.0000 C   0  0
  -15.4565   11.1147    0.0000 C   0  0  1  0  0  0
  -14.7073   11.7771    0.0000 O   0  0
  -14.1632   10.3666    0.0000 C   0  0  2  0  0  0
  -14.0666   11.3619    0.0000 C   0  0
  -12.7446   10.8538    0.0000 C   0  0  2  0  0  0
  -12.4571   12.3260    0.0000 O   0  0
  -11.6133    9.8687    0.0000 C   0  0
  -11.9007    8.3965    0.0000 C   0  0  2  0  0  0
  -10.7695    7.4115    0.0000 C   0  0  2  0  0  0
  -10.4820    8.8837    0.0000 C   0  0
   -9.3508    7.8987    0.0000 C   0  0
  2  1  1  1
  2  3  1  0
  3  4  1  6
  4  5  1  0
  5  6  2  0
  6  7  1  0
  7  8  1  6
  8  9  1  0
 10  9  1  6
 10 11  1  0
 11 12  1  0
 12 13  2  0
 13 14  1  0
 14 15  2  0
 15 16  1  0
 16 17  2  0
 17 12  1  0
 17 18  1  0
 18 19  1  0
 19 10  1  0
 19 20  1  6
 19 21  1  0
 21  7  1  0
 21 22  1  1
 21 23  1  0
 23 24  1  0
 24 25  2  0
 24 26  1  0
 26  6  1  0
 26  3  1  0
 26 27  1  6
 27 28  1  0
 29 28  1  6
 29  2  1  0
 29 30  1  0
 30 31  1  0
 31 32  1  0
 31 33  1  0
 31 34  1  0
 34 35  1  0
 35 29  1  0
 35 36  1  6
 15 37  1  0
 38 37  1  6
 38 39  1  0
 39 40  1  0
 41 40  1  1
 41 42  1  0
 42 43  2  0
 44 43  1  6
 44 45  1  0
 46 45  1  6
 46 47  1  0
 47 48  1  0
 48 49  1  6
 48 50  1  0
 50 51  1  0
 48 52  1  0
 52 53  1  0
 53 46  1  0
 53 54  1  6
 46 55  1  0
 55 56  1  1
 55 57  1  0
 57 44  1  0
 57 58  1  1
 57 59  1  0
 59 42  1  0
 59 60  1  6
 59 61  1  0
 61 62  1  6
 61 63  1  0
 64 63  1  6
 64 41  1  0
 64 65  1  0
 65 38  1  0
 65 66  1  6
 65 67  1  0
 67 14  1  0
M  END
> <Smiles>
C[C@@H]1[C@H]2CC=C3[C@H]4CC[C@H]5Cc6nc7c(nc6C[C@]5(C)[C@@]4(O)CC(=O)[C@@]32CO[C@]12OC(C)(C)C[C@H]2O)C[C@@H]1CC[C@H]2C3=C[C@@H]4O[C@]5(O[C@](C)(CO)C[C@H]5O)[C@@H](C)[C@]4(O)[C@@]3(C)[C@H](O)C[C@@H]2[C@
@]1(C)C7

> <ID>
CHEMBL438157

> <standard_value>
2.7

> <IC50_uM>
0.0027

> <Activity>
Yes

> <pIC50>
8.568636236

> <BCI>
1

$$$$

  SciTegic03012415362D

 96100  0  0  1  0            999 V2000
   12.0515  -10.3195    0.0000 C   0  0
   10.6287   -9.8446    0.0000 C   0  0
   10.3275   -8.3743    0.0000 C   0  0  2  0  0  0
   11.4499   -7.3792    0.0000 C   0  0
    8.9039   -7.8991    0.0000 C   0  0  1  0  0  0
    8.6011   -6.4292    0.0000 C   0  0  1  0  0  0
    9.7220   -5.4312    0.0000 C   0  0
    9.4192   -3.9613    0.0000 C   0  0
    7.9954   -3.4893    0.0000 O   0  0
   10.5381   -2.9650    0.0000 N   0  0
   12.0054   -3.2769    0.0000 C   0  0
   12.7554   -1.9778    0.0000 C   0  0
   11.7516   -0.8631    0.0000 C   0  0
   10.4003   -1.4841    0.0000 C   0  0  1  0  0  0
    9.0990   -0.7364    0.0000 C   0  0  2  0  0  0
    9.0994    0.7644    0.0000 O   0  0
   10.3982    1.5148    0.0000 C   0  0
    7.8003   -1.4887    0.0000 C   0  0  1  0  0  0
    7.8029   -2.9887    0.0000 C   0  0
    6.4990   -0.7409    0.0000 C   0  0
    6.4964    0.7591    0.0000 O   0  0
    5.2003   -1.4932    0.0000 N   0  0
    3.8990   -0.7455    0.0000 C   0  0
    2.6003   -1.4977    0.0000 C   0  0
    1.2990   -0.7500    0.0000 C   0  0
    1.2990    0.7500    0.0000 C   0  0
    0.0000    1.5000    0.0000 C   0  0
   -1.2990    0.7500    0.0000 C   0  0
   -1.2990   -0.7500    0.0000 C   0  0
   -2.5981   -1.5000    0.0000 N   0  0
   -2.5981   -3.0000    0.0000 C   0  0
   -1.2990   -3.7500    0.0000 C   0  0
    0.0000   -3.0000    0.0000 C   0  0
    0.0000   -1.5000    0.0000 C   0  0
    7.1755   -5.9598    0.0000 O   0  0
    6.0562   -6.9585    0.0000 C   0  0
    7.7829   -8.8971    0.0000 N   0  0
    6.3591   -8.4251    0.0000 C   0  0
    8.0858  -10.3670    0.0000 C   0  0
    9.5096  -10.8390    0.0000 O   0  0
    6.9648  -11.3650    0.0000 C   0  0  1  0  0  0
    7.2676  -12.8349    0.0000 N   0  0
    6.1467  -13.8329    0.0000 C   0  0
    4.7228  -13.3609    0.0000 O   0  0
    6.4495  -15.3028    0.0000 C   0  0  2  0  0  0
    7.8731  -15.7780    0.0000 C   0  0
    8.1741  -17.2475    0.0000 C   0  0
    8.9955  -14.7829    0.0000 C   0  0
    5.3285  -16.3008    0.0000 N   0  0
    3.9047  -15.8288    0.0000 C   0  0
    5.6313  -17.7707    0.0000 C   0  0
    7.0552  -18.2427    0.0000 O   0  0
    4.5104  -18.7687    0.0000 O   0  0
    4.8132  -20.2386    0.0000 C   0  0
    3.6922  -21.2366    0.0000 C   0  0
    3.9928  -22.7062    0.0000 C   0  0
    2.8704  -23.7013    0.0000 C   0  0
    1.4474  -23.2269    0.0000 C   0  0
    0.3224  -24.2202    0.0000 N   0  0
   -1.1007  -23.7435    0.0000 C   0  0
   -1.3988  -22.2734    0.0000 O   0  0
   -2.2258  -24.7369    0.0000 C   0  0  2  0  0  0
   -1.9306  -26.2084    0.0000 C   0  0
   -3.0567  -27.2005    0.0000 C   0  0
   -2.7616  -28.6720    0.0000 C   0  0
   -3.8877  -29.6641    0.0000 N   0  0
   -3.5925  -31.1356    0.0000 C   0  0
   -2.1712  -31.6150    0.0000 N   0  0
   -4.7180  -32.1272    0.0000 O   0  0
   -3.6489  -24.2601    0.0000 N   0  0
   -4.7739  -25.2535    0.0000 C   0  0
   -4.4759  -26.7236    0.0000 O   0  0
   -6.1970  -24.7767    0.0000 C   0  0  1  0  0  0
   -7.3221  -25.7701    0.0000 N   0  0
   -8.7452  -25.2933    0.0000 C   0  0
   -9.0432  -23.8233    0.0000 O   0  0
   -9.8702  -26.2867    0.0000 C   0  0
  -11.2933  -25.8100    0.0000 C   0  0
  -12.4183  -26.8033    0.0000 C   0  0
  -13.8414  -26.3266    0.0000 C   0  0
  -14.9665  -27.3199    0.0000 C   0  0
  -16.3896  -26.8432    0.0000 N   0  0
  -17.5921  -27.7183    0.0000 C   0  0
  -17.5999  -29.2182    0.0000 O   0  0
  -18.7958  -26.8231    0.0000 C   0  0
  -18.3164  -25.4018    0.0000 C   0  0
  -16.8165  -25.4185    0.0000 C   0  0
  -15.9142  -24.2202    0.0000 O   0  0
   -6.4983  -23.3064    0.0000 C   0  0
   -7.9211  -22.8315    0.0000 C   0  0
   -5.3759  -22.3113    0.0000 C   0  0
    1.1468  -21.7573    0.0000 C   0  0
    2.2692  -20.7622    0.0000 C   0  0
    5.5392  -10.8956    0.0000 C   0  0
    4.4200  -11.8943    0.0000 C   0  0
    5.2335   -9.4271    0.0000 C   0  0
  1  2  1  0
  2  3  1  0
  3  4  1  1
  3  5  1  0
  5  6  1  0
  6  7  1  6
  7  8  1  0
  8  9  2  0
  8 10  1  0
 10 11  1  0
 11 12  1  0
 12 13  1  0
 14 13  1  6
 14 10  1  0
 14 15  1  0
 15 16  1  1
 16 17  1  0
 15 18  1  0
 18 19  1  1
 18 20  1  0
 20 21  2  0
 20 22  1  0
 22 23  1  0
 23 24  1  0
 24 25  1  0
 25 26  2  0
 26 27  1  0
 27 28  2  0
 28 29  1  0
 29 30  2  0
 30 31  1  0
 31 32  2  0
 32 33  1  0
 33 34  2  0
 34 25  1  0
 34 29  1  0
  6 35  1  0
 35 36  1  0
  5 37  1  6
 37 38  1  0
 37 39  1  0
 39 40  2  0
 39 41  1  0
 41 42  1  1
 42 43  1  0
 43 44  2  0
 45 43  1  6
 45 46  1  0
 46 47  1  0
 46 48  1  0
 45 49  1  0
 49 50  1  0
 49 51  1  0
 51 52  2  0
 51 53  1  0
 53 54  1  0
 54 55  1  0
 55 56  2  0
 56 57  1  0
 57 58  2  0
 58 59  1  0
 59 60  1  0
 60 61  2  0
 60 62  1  0
 62 63  1  6
 63 64  1  0
 64 65  1  0
 65 66  1  0
 66 67  1  0
 67 68  1  0
 67 69  2  0
 62 70  1  0
 70 71  1  0
 71 72  2  0
 71 73  1  0
 73 74  1  1
 74 75  1  0
 75 76  2  0
 75 77  1  0
 77 78  1  0
 78 79  1  0
 79 80  1  0
 80 81  1  0
 81 82  1  0
 82 83  1  0
 83 84  2  0
 83 85  1  0
 85 86  2  0
 86 87  1  0
 87 82  1  0
 87 88  2  0
 73 89  1  0
 89 90  1  0
 89 91  1  0
 58 92  1  0
 92 93  2  0
 93 55  1  0
 41 94  1  0
 94 95  1  0
 94 96  1  0
M  END
> <Smiles>
CC[C@H](C)[C@@H]([C@@H](CC(=O)N1CCC[C@H]1[C@H](OC)[C@@H](C)C(=O)NCCc1cccc2ncccc12)OC)N(C)C(=O)[C@@H](NC(=O)[C@H](C(C)C)N(C)C(=O)OCc1ccc(NC(=O)[C@H](CCCNC(N)=O)NC(=O)[C@@H](NC(=O)CCCCCN2C(=O)C=CC2=O)C(
C)C)cc1)C(C)C

> <ID>
CHEMBL4161233

> <standard_value>
2.99

> <IC50_uM>
0.00299

> <Activity>
Yes

> <pIC50>
8.524328812

> <BCI>
1

$$$$

  SciTegic03012415362D

 88 89  0  0  1  0            999 V2000
    3.0021   12.0680    0.0000 C   0  0
    2.4917   10.6575    0.0000 C   0  0
    1.0150   10.3947    0.0000 C   0  0
    3.4579    9.5090    0.0000 C   0  0
    2.9432    8.0863    0.0000 C   0  0  1  0  0  0
    1.4942    8.4746    0.0000 O   0  0
    0.0000    8.6053    0.0000 C   0  0
   -0.0001   10.1053    0.0000 O   0  0
   -1.4943    8.4746    0.0000 C   0  0  2  0  0  0
   -1.7599    9.9640    0.0000 C   0  0
   -3.1702   10.4752    0.0000 C   0  0
   -0.6124   10.9301    0.0000 C   0  0
   -2.9432    8.0863    0.0000 N   0  0
   -4.3027    7.4524    0.0000 C   0  0
   -5.0527    8.7514    0.0000 O   0  0
   -5.5314    6.5920    0.0000 C   0  0  2  0  0  0
   -6.4956    7.7411    0.0000 C   0  0
   -6.5921    5.5313    0.0000 O   0  0
   -7.4524    4.3026    0.0000 C   0  0
   -8.7515    5.0526    0.0000 O   0  0
   -8.0863    2.9431    0.0000 C   0  0  1  0  0  0
   -9.5091    3.4579    0.0000 C   0  0
  -10.6569    2.4922    0.0000 C   0  0
   -9.7720    4.9347    0.0000 C   0  0
   -8.4746    1.4943    0.0000 N   0  0
   -8.6053    0.0000    0.0000 C   0  0
  -10.1053    0.0000    0.0000 O   0  0
   -8.4746   -1.4943    0.0000 C   0  0  1  0  0  0
   -9.9650   -1.7542    0.0000 C   0  0
  -10.9283   -0.6032    0.0000 C   0  0
  -12.4064   -0.8587    0.0000 C   0  0
  -13.3667    0.2936    0.0000 C   0  0
  -12.8490    1.7014    0.0000 C   0  0
  -11.3709    1.9570    0.0000 C   0  0
  -10.4106    0.8047    0.0000 C   0  0
   -8.0863   -2.9432    0.0000 O   0  0
   -7.4524   -4.3027    0.0000 C   0  0
   -8.7514   -5.0527    0.0000 O   0  0
   -6.5920   -5.5314    0.0000 C   0  0  2  0  0  0
   -7.7497   -6.5055    0.0000 C   0  0  1  0  0  0
   -7.4866   -7.9823    0.0000 C   0  0
   -9.1610   -5.9951    0.0000 O   0  0
  -10.3094   -6.9615    0.0000 C   0  0
  -11.7199   -6.4513    0.0000 C   0  0
  -11.4566   -7.9278    0.0000 C   0  0
  -10.0463   -8.4382    0.0000 C   0  0
   -5.5314   -6.5921    0.0000 N   0  0
   -4.3026   -7.4524    0.0000 C   0  0
   -5.0526   -8.7515    0.0000 O   0  0
   -2.9432   -8.0863    0.0000 C   0  0  2  0  0  0
   -3.4562   -9.4959    0.0000 C   0  0
   -1.4943   -8.4746    0.0000 O   0  0
    0.0000   -8.6053    0.0000 C   0  0
    0.0000  -10.1053    0.0000 O   0  0
    1.4943   -8.4746    0.0000 C   0  0  1  0  0  0
    1.7599   -9.9640    0.0000 C   0  0
    3.1701  -10.4752    0.0000 C   0  0
    0.6124  -10.9301    0.0000 C   0  0
    2.9432   -8.0863    0.0000 N   0  0
    4.3027   -7.4524    0.0000 C   0  0
    5.0527   -8.7514    0.0000 O   0  0
    5.5314   -6.5920    0.0000 C   0  0  1  0  0  0
    6.5017   -7.7529    0.0000 C   0  0
    5.9865   -9.1625    0.0000 C   0  0
    6.9485  -10.3135    0.0000 C   0  0
    4.5089   -9.4206    0.0000 C   0  0
    6.5920   -5.5314    0.0000 O   0  0
    7.4524   -4.3026    0.0000 C   0  0
    8.7514   -5.0526    0.0000 O   0  0
    8.0863   -2.9432    0.0000 C   0  0  2  0  0  0
    9.5091   -3.4579    0.0000 C   0  0
   10.6569   -2.4922    0.0000 C   0  0
    9.7719   -4.9347    0.0000 C   0  0
    8.4746   -1.4943    0.0000 N   0  0
    8.6053    0.0000    0.0000 C   0  0
   10.1053    0.0000    0.0000 O   0  0
    8.4746    1.4943    0.0000 C   0  0  2  0  0  0
    9.9518    1.7548    0.0000 C   0  0
    8.0863    2.9432    0.0000 O   0  0
    7.4524    4.3027    0.0000 C   0  0
    8.7514    5.0527    0.0000 O   0  0
    6.5920    5.5314    0.0000 C   0  0  1  0  0  0
    7.7492    6.5061    0.0000 C   0  0
    7.4868    7.9830    0.0000 C   0  0
    9.1595    5.9954    0.0000 C   0  0
    5.5314    6.5920    0.0000 N   0  0
    4.3026    7.4524    0.0000 C   0  0
    5.0526    8.7514    0.0000 O   0  0
  1  2  1  0
  2  3  1  0
  2  4  1  0
  5  4  1  6
  5  6  1  0
  6  7  1  0
  7  8  2  0
  7  9  1  0
  9 10  1  1
 10 11  1  0
 10 12  1  0
  9 13  1  0
 13 14  1  0
 14 15  2  0
 14 16  1  0
 16 17  1  1
 16 18  1  0
 18 19  1  0
 19 20  2  0
 19 21  1  0
 21 22  1  6
 22 23  1  0
 22 24  1  0
 21 25  1  0
 25 26  1  0
 26 27  2  0
 26 28  1  0
 28 29  1  6
 29 30  1  0
 30 31  1  0
 31 32  1  0
 32 33  1  0
 33 34  1  0
 34 35  1  0
 35 30  1  0
 28 36  1  0
 36 37  1  0
 37 38  2  0
 37 39  1  0
 39 40  1  0
 40 41  1  1
 40 42  1  0
 42 43  1  0
 43 44  1  0
 43 45  1  0
 43 46  1  0
 39 47  1  1
 47 48  1  0
 48 49  2  0
 48 50  1  0
 50 51  1  1
 50 52  1  0
 52 53  1  0
 53 54  2  0
 53 55  1  0
 55 56  1  6
 56 57  1  0
 56 58  1  0
 55 59  1  0
 59 60  1  0
 60 61  2  0
 60 62  1  0
 62 63  1  6
 63 64  1  0
 64 65  1  0
 64 66  1  0
 62 67  1  0
 67 68  1  0
 68 69  2  0
 68 70  1  0
 70 71  1  1
 71 72  1  0
 71 73  1  0
 70 74  1  0
 74 75  1  0
 75 76  2  0
 75 77  1  0
 77 78  1  1
 77 79  1  0
 79 80  1  0
 80 81  2  0
 80 82  1  0
 82 83  1  6
 83 84  1  0
 83 85  1  0
 82 86  1  0
 86 87  1  0
 87  5  1  0
 87 88  2  0
M  END
> <Smiles>
CC(C)C[C@H]1OC(=O)[C@H](C(C)C)NC(=O)[C@H](C)OC(=O)[C@@H](C(C)C)NC(=O)[C@@H](CC2CCCCC2)OC(=O)[C@H]([C@@H](C)OC(C)(C)C)NC(=O)[C@H](C)OC(=O)[C@@H](C(C)C)NC(=O)[C@@H](CC(C)C)OC(=O)[C@H](C(C)C)NC(=O)[C@H](
C)OC(=O)[C@@H](C(C)C)NC1=O

> <ID>
CHEMBL3577203

> <standard_value>
3.2

> <IC50_uM>
0.0032

> <Activity>
Yes

> <pIC50>
8.494850022

> <BCI>
1

$$$$

  SciTegic03012415362D

 90 93  0  0  1  0            999 V2000
    2.4923   10.6569    0.0000 C   0  0
    3.4579    9.5090    0.0000 C   0  0
    4.9347    9.7719    0.0000 C   0  0
    2.9432    8.0863    0.0000 C   0  0  2  0  0  0
    1.4942    8.4746    0.0000 N   0  0
    0.0000    8.6053    0.0000 C   0  0
   -0.0001   10.1053    0.0000 O   0  0
   -1.4943    8.4746    0.0000 C   0  0  2  0  0  0
   -1.7548    9.9518    0.0000 C   0  0
   -2.9432    8.0863    0.0000 O   0  0
   -4.3027    7.4524    0.0000 C   0  0
   -5.0527    8.7514    0.0000 O   0  0
   -5.5314    6.5920    0.0000 C   0  0  1  0  0  0
   -6.5062    7.7491    0.0000 C   0  0
   -7.9830    7.4867    0.0000 C   0  0
   -5.9954    9.1595    0.0000 C   0  0
   -6.5921    5.5313    0.0000 N   0  0
   -7.4524    4.3026    0.0000 C   0  0
   -8.7515    5.0526    0.0000 O   0  0
   -8.0863    2.9431    0.0000 C   0  0  1  0  0  0
   -9.5071    3.4633    0.0000 C   0  0
   -9.7658    4.9417    0.0000 C   0  0
  -11.1736    5.4595    0.0000 C   0  0
  -11.4291    6.9376    0.0000 C   0  0
  -10.2768    7.8980    0.0000 C   0  0
   -8.8690    7.3802    0.0000 C   0  0
   -8.6135    5.9022    0.0000 C   0  0
   -8.4746    1.4943    0.0000 O   0  0
   -8.6053    0.0000    0.0000 C   0  0
  -10.1053    0.0000    0.0000 O   0  0
   -8.4746   -1.4943    0.0000 C   0  0  2  0  0  0
   -9.9642   -1.7591    0.0000 C   0  0  1  0  0  0
  -10.4748   -3.1696    0.0000 C   0  0
  -10.9307   -0.6121    0.0000 O   0  0
   -8.0863   -2.9432    0.0000 N   0  0
   -7.4524   -4.3027    0.0000 C   0  0
   -8.7514   -5.0527    0.0000 O   0  0
   -6.5920   -5.5314    0.0000 C   0  0  2  0  0  0
   -7.7411   -6.4956    0.0000 C   0  0
   -5.5314   -6.5921    0.0000 O   0  0
   -4.3026   -7.4524    0.0000 C   0  0
   -5.0526   -8.7515    0.0000 O   0  0
   -2.9432   -8.0863    0.0000 C   0  0  1  0  0  0
   -3.4579   -9.5091    0.0000 C   0  0
   -2.4922  -10.6569    0.0000 C   0  0
   -4.9347   -9.7719    0.0000 C   0  0
   -1.4943   -8.4746    0.0000 N   0  0
    0.0000   -8.6053    0.0000 C   0  0
    0.0000  -10.1053    0.0000 O   0  0
    1.4943   -8.4746    0.0000 C   0  0  1  0  0  0
    1.7542   -9.9650    0.0000 C   0  0
    0.6032  -10.9283    0.0000 C   0  0
    0.8587  -12.4064    0.0000 C   0  0
   -0.2936  -13.3667    0.0000 C   0  0
   -1.7014  -12.8490    0.0000 C   0  0
   -1.9570  -11.3709    0.0000 C   0  0
   -0.8047  -10.4106    0.0000 C   0  0
    2.9432   -8.0863    0.0000 O   0  0
    4.3027   -7.4524    0.0000 C   0  0
    5.0527   -8.7514    0.0000 O   0  0
    5.5314   -6.5920    0.0000 C   0  0  2  0  0  0
    6.5061   -7.7492    0.0000 C   0  0
    7.9830   -7.4867    0.0000 C   0  0
    5.9954   -9.1595    0.0000 C   0  0
    6.5920   -5.5314    0.0000 N   0  0
    7.4524   -4.3026    0.0000 C   0  0
    8.7514   -5.0526    0.0000 O   0  0
    8.0863   -2.9432    0.0000 C   0  0  2  0  0  0
    9.4959   -3.4562    0.0000 C   0  0
    8.4746   -1.4943    0.0000 O   0  0
    8.6053    0.0000    0.0000 C   0  0
   10.1053    0.0000    0.0000 O   0  0
    8.4746    1.4943    0.0000 C   0  0  1  0  0  0
    9.9640    1.7599    0.0000 C   0  0
   10.4752    3.1701    0.0000 C   0  0
   10.9301    0.6124    0.0000 C   0  0
    8.0863    2.9432    0.0000 N   0  0
    7.4524    4.3027    0.0000 C   0  0
    8.7514    5.0527    0.0000 O   0  0
    6.5920    5.5314    0.0000 C   0  0  1  0  0  0
    7.7529    6.5017    0.0000 C   0  0
    9.1626    5.9865    0.0000 C   0  0
   10.3149    6.9468    0.0000 C   0  0
   11.7227    6.4291    0.0000 C   0  0
   11.9783    4.9510    0.0000 C   0  0
   10.8260    3.9907    0.0000 C   0  0
    9.4182    4.5084    0.0000 C   0  0
    5.5314    6.5920    0.0000 O   0  0
    4.3026    7.4524    0.0000 C   0  0
    5.0526    8.7514    0.0000 O   0  0
  1  2  1  0
  2  3  1  0
  4  2  1  1
  4  5  1  0
  5  6  1  0
  6  7  2  0
  6  8  1  0
  8  9  1  1
  8 10  1  0
 10 11  1  0
 11 12  2  0
 11 13  1  0
 13 14  1  6
 14 15  1  0
 14 16  1  0
 13 17  1  0
 17 18  1  0
 18 19  2  0
 18 20  1  0
 20 21  1  6
 21 22  1  0
 22 23  1  0
 23 24  1  0
 24 25  1  0
 25 26  1  0
 26 27  1  0
 27 22  1  0
 20 28  1  0
 28 29  1  0
 29 30  2  0
 29 31  1  0
 31 32  1  0
 32 33  1  1
 32 34  1  0
 31 35  1  1
 35 36  1  0
 36 37  2  0
 36 38  1  0
 38 39  1  1
 38 40  1  0
 40 41  1  0
 41 42  2  0
 41 43  1  0
 43 44  1  6
 44 45  1  0
 44 46  1  0
 43 47  1  0
 47 48  1  0
 48 49  2  0
 48 50  1  0
 50 51  1  6
 51 52  1  0
 52 53  1  0
 53 54  1  0
 54 55  1  0
 55 56  1  0
 56 57  1  0
 57 52  1  0
 50 58  1  0
 58 59  1  0
 59 60  2  0
 59 61  1  0
 61 62  1  1
 62 63  1  0
 62 64  1  0
 61 65  1  0
 65 66  1  0
 66 67  2  0
 66 68  1  0
 68 69  1  1
 68 70  1  0
 70 71  1  0
 71 72  2  0
 71 73  1  0
 73 74  1  6
 74 75  1  0
 74 76  1  0
 73 77  1  0
 77 78  1  0
 78 79  2  0
 78 80  1  0
 80 81  1  6
 81 82  1  0
 82 83  1  0
 83 84  1  0
 84 85  1  0
 85 86  1  0
 86 87  1  0
 87 82  1  0
 80 88  1  0
 88 89  1  0
 89  4  1  0
 89 90  2  0
M  END
> <Smiles>
CC(C)[C@@H]1NC(=O)[C@H](C)OC(=O)[C@@H](C(C)C)NC(=O)[C@@H](CC2CCCCC2)OC(=O)[C@H]([C@@H](C)O)NC(=O)[C@H](C)OC(=O)[C@@H](C(C)C)NC(=O)[C@@H](CC2CCCCC2)OC(=O)[C@H](C(C)C)NC(=O)[C@H](C)OC(=O)[C@@H](C(C)C)NC
(=O)[C@@H](CC2CCCCC2)OC1=O

> <ID>
CHEMBL3577201

> <standard_value>
3.4

> <IC50_uM>
0.0034

> <Activity>
Yes

> <pIC50>
8.468521083

> <BCI>
1

$$$$

  SciTegic03012415362D

 96100  0  0  1  0            999 V2000
   12.0515  -10.3195    0.0000 C   0  0
   10.6287   -9.8446    0.0000 C   0  0
   10.3275   -8.3743    0.0000 C   0  0  2  0  0  0
   11.4499   -7.3792    0.0000 C   0  0
    8.9039   -7.8991    0.0000 C   0  0  1  0  0  0
    8.6011   -6.4292    0.0000 C   0  0  1  0  0  0
    9.7220   -5.4312    0.0000 C   0  0
    9.4192   -3.9613    0.0000 C   0  0
    7.9954   -3.4893    0.0000 O   0  0
   10.5381   -2.9650    0.0000 N   0  0
   12.0054   -3.2769    0.0000 C   0  0
   12.7554   -1.9778    0.0000 C   0  0
   11.7516   -0.8631    0.0000 C   0  0
   10.4003   -1.4841    0.0000 C   0  0  1  0  0  0
    9.0990   -0.7364    0.0000 C   0  0  2  0  0  0
    9.0994    0.7644    0.0000 O   0  0
   10.3982    1.5148    0.0000 C   0  0
    7.8003   -1.4887    0.0000 C   0  0  1  0  0  0
    7.8029   -2.9887    0.0000 C   0  0
    6.4990   -0.7409    0.0000 C   0  0
    6.4964    0.7591    0.0000 O   0  0
    5.2003   -1.4932    0.0000 N   0  0
    3.8990   -0.7455    0.0000 C   0  0
    2.6003   -1.4977    0.0000 C   0  0
    1.2990   -0.7500    0.0000 C   0  0
    1.2990    0.7500    0.0000 C   0  0
    0.0000    1.5000    0.0000 C   0  0
   -1.2990    0.7500    0.0000 C   0  0
   -1.2990   -0.7500    0.0000 C   0  0
   -2.5981   -1.5000    0.0000 C   0  0
   -2.5981   -3.0000    0.0000 C   0  0
   -1.2990   -3.7500    0.0000 C   0  0
    0.0000   -3.0000    0.0000 N   0  0
    0.0000   -1.5000    0.0000 C   0  0
    7.1755   -5.9598    0.0000 O   0  0
    6.0562   -6.9585    0.0000 C   0  0
    7.7829   -8.8971    0.0000 N   0  0
    6.3591   -8.4251    0.0000 C   0  0
    8.0858  -10.3670    0.0000 C   0  0
    9.5096  -10.8390    0.0000 O   0  0
    6.9648  -11.3650    0.0000 C   0  0  1  0  0  0
    7.2676  -12.8349    0.0000 N   0  0
    6.1467  -13.8329    0.0000 C   0  0
    4.7228  -13.3609    0.0000 O   0  0
    6.4495  -15.3028    0.0000 C   0  0  2  0  0  0
    7.8731  -15.7780    0.0000 C   0  0
    8.1741  -17.2475    0.0000 C   0  0
    8.9955  -14.7829    0.0000 C   0  0
    5.3285  -16.3008    0.0000 N   0  0
    3.9047  -15.8288    0.0000 C   0  0
    5.6313  -17.7707    0.0000 C   0  0
    7.0552  -18.2427    0.0000 O   0  0
    4.5104  -18.7687    0.0000 O   0  0
    4.8132  -20.2386    0.0000 C   0  0
    3.6922  -21.2366    0.0000 C   0  0
    3.9928  -22.7062    0.0000 C   0  0
    2.8704  -23.7013    0.0000 C   0  0
    1.4474  -23.2269    0.0000 C   0  0
    0.3224  -24.2202    0.0000 N   0  0
   -1.1007  -23.7435    0.0000 C   0  0
   -1.3988  -22.2734    0.0000 O   0  0
   -2.2258  -24.7369    0.0000 C   0  0  2  0  0  0
   -1.9306  -26.2084    0.0000 C   0  0
   -3.0567  -27.2005    0.0000 C   0  0
   -2.7616  -28.6720    0.0000 C   0  0
   -3.8877  -29.6641    0.0000 N   0  0
   -3.5925  -31.1356    0.0000 C   0  0
   -2.1712  -31.6150    0.0000 N   0  0
   -4.7180  -32.1272    0.0000 O   0  0
   -3.6489  -24.2601    0.0000 N   0  0
   -4.7739  -25.2535    0.0000 C   0  0
   -4.4759  -26.7236    0.0000 O   0  0
   -6.1970  -24.7767    0.0000 C   0  0  1  0  0  0
   -7.3221  -25.7701    0.0000 N   0  0
   -8.7452  -25.2933    0.0000 C   0  0
   -9.0432  -23.8233    0.0000 O   0  0
   -9.8702  -26.2867    0.0000 C   0  0
  -11.2933  -25.8100    0.0000 C   0  0
  -12.4183  -26.8033    0.0000 C   0  0
  -13.8414  -26.3266    0.0000 C   0  0
  -14.9665  -27.3199    0.0000 C   0  0
  -16.3896  -26.8432    0.0000 N   0  0
  -17.5921  -27.7183    0.0000 C   0  0
  -17.5999  -29.2182    0.0000 O   0  0
  -18.7958  -26.8231    0.0000 C   0  0
  -18.3164  -25.4018    0.0000 C   0  0
  -16.8165  -25.4185    0.0000 C   0  0
  -15.9142  -24.2202    0.0000 O   0  0
   -6.4983  -23.3064    0.0000 C   0  0
   -7.9211  -22.8315    0.0000 C   0  0
   -5.3759  -22.3113    0.0000 C   0  0
    1.1468  -21.7573    0.0000 C   0  0
    2.2692  -20.7622    0.0000 C   0  0
    5.5392  -10.8956    0.0000 C   0  0
    4.4200  -11.8943    0.0000 C   0  0
    5.2335   -9.4271    0.0000 C   0  0
  1  2  1  0
  2  3  1  0
  3  4  1  1
  3  5  1  0
  5  6  1  0
  6  7  1  6
  7  8  1  0
  8  9  2  0
  8 10  1  0
 10 11  1  0
 11 12  1  0
 12 13  1  0
 14 13  1  6
 14 10  1  0
 14 15  1  0
 15 16  1  1
 16 17  1  0
 15 18  1  0
 18 19  1  1
 18 20  1  0
 20 21  2  0
 20 22  1  0
 22 23  1  0
 23 24  1  0
 24 25  1  0
 25 26  2  0
 26 27  1  0
 27 28  2  0
 28 29  1  0
 29 30  2  0
 30 31  1  0
 31 32  2  0
 32 33  1  0
 33 34  2  0
 34 25  1  0
 34 29  1  0
  6 35  1  0
 35 36  1  0
  5 37  1  6
 37 38  1  0
 37 39  1  0
 39 40  2  0
 39 41  1  0
 41 42  1  1
 42 43  1  0
 43 44  2  0
 45 43  1  6
 45 46  1  0
 46 47  1  0
 46 48  1  0
 45 49  1  0
 49 50  1  0
 49 51  1  0
 51 52  2  0
 51 53  1  0
 53 54  1  0
 54 55  1  0
 55 56  2  0
 56 57  1  0
 57 58  2  0
 58 59  1  0
 59 60  1  0
 60 61  2  0
 60 62  1  0
 62 63  1  6
 63 64  1  0
 64 65  1  0
 65 66  1  0
 66 67  1  0
 67 68  1  0
 67 69  2  0
 62 70  1  0
 70 71  1  0
 71 72  2  0
 71 73  1  0
 73 74  1  1
 74 75  1  0
 75 76  2  0
 75 77  1  0
 77 78  1  0
 78 79  1  0
 79 80  1  0
 80 81  1  0
 81 82  1  0
 82 83  1  0
 83 84  2  0
 83 85  1  0
 85 86  2  0
 86 87  1  0
 87 82  1  0
 87 88  2  0
 73 89  1  0
 89 90  1  0
 89 91  1  0
 58 92  1  0
 92 93  2  0
 93 55  1  0
 41 94  1  0
 94 95  1  0
 94 96  1  0
M  END
> <Smiles>
CC[C@H](C)[C@@H]([C@@H](CC(=O)N1CCC[C@H]1[C@H](OC)[C@@H](C)C(=O)NCCc1cccc2cccnc12)OC)N(C)C(=O)[C@@H](NC(=O)[C@H](C(C)C)N(C)C(=O)OCc1ccc(NC(=O)[C@H](CCCNC(N)=O)NC(=O)[C@@H](NC(=O)CCCCCN2C(=O)C=CC2=O)C(
C)C)cc1)C(C)C

> <ID>
CHEMBL4161133

> <standard_value>
3.52

> <IC50_uM>
0.00352

> <Activity>
Yes

> <pIC50>
8.453457337

> <BCI>
1

$$$$

  SciTegic03012415362D

 69 81  0  0  1  0            999 V2000
    2.6044   -2.9977    0.0000 C   0  0
    2.6003   -1.4977    0.0000 O   0  0
    1.2990   -0.7500    0.0000 C   0  0  1  0  0  0
    1.2990    0.7500    0.0000 C   0  0
    2.5981    1.5000    0.0000 N   0  0
    2.5981    3.0000    0.0000 C   0  0
    1.2990    3.7500    0.0000 C   0  0
    0.0000    3.0000    0.0000 N   0  0
    0.0000    1.5000    0.0000 C   0  0
   -1.2990    0.7500    0.0000 C   0  0
   -1.2990   -0.7500    0.0000 C   0  0  2  0  0  0
   -2.5981   -1.5000    0.0000 C   0  0
   -2.5981   -3.0000    0.0000 C   0  0
   -1.2990   -3.7500    0.0000 C   0  0  1  0  0  0
   -1.2990   -5.2500    0.0000 C   0  0
   -2.3946   -6.2666    0.0000 C   0  0
   -1.7758   -7.6330    0.0000 C   0  0  2  0  0  0
   -2.0426   -9.0994    0.0000 O   0  0
   -0.7314   -9.8280    0.0000 C   0  0  1  0  0  0
   -0.0217  -11.1946    0.0000 O   0  0
   -1.0363  -12.2994    0.0000 C   0  0  2  0  0  0
   -2.1764  -13.2741    0.0000 C   0  0
    0.3812  -12.7503    0.0000 C   0  0
    1.5061  -11.7580    0.0000 O   0  0
   -2.4006  -11.6758    0.0000 C   0  0
   -2.2292  -10.1857    0.0000 C   0  0  1  0  0  0
   -3.3515   -9.1905    0.0000 O   0  0
    0.3667   -8.8062    0.0000 C   0  0  1  0  0  0
    1.8413   -9.0811    0.0000 C   0  0
   -0.2850   -7.4666    0.0000 C   0  0  1  0  0  0
    0.7065   -7.3366    0.0000 O   0  0
    0.0000   -6.0000    0.0000 C   0  0  2  0  0  0
    0.8142   -6.5807    0.0000 C   0  0
    1.2991   -5.2500    0.0000 C   0  0  2  0  0  0
    2.5981   -6.0000    0.0000 O   0  0
    1.2991   -3.7500    0.0000 C   0  0
    0.0000   -3.0000    0.0000 C   0  0  2  0  0  0
    0.0000   -1.5000    0.0000 C   0  0  1  0  0  0
    1.2990   -2.2500    0.0000 C   0  0
    1.2990    5.2500    0.0000 C   0  0
    2.5980    6.0000    0.0000 C   0  0  1  0  0  0
    1.7320    6.5000    0.0000 C   0  0
    3.8971    5.2500    0.0000 C   0  0  1  0  0  0
    5.1961    6.0000    0.0000 C   0  0
    5.1961    7.5000    0.0000 C   0  0
    3.8971    8.2500    0.0000 C   0  0  1  0  0  0
    3.8970    9.7500    0.0000 C   0  0
    4.5606   11.3494    0.0000 C   0  0
    3.5283   12.4376    0.0000 C   0  0
    1.8937   11.8783    0.0000 C   0  0  2  0  0  0
    2.6437   13.1774    0.0000 C   0  0  2  0  0  0
    1.8937   14.4764    0.0000 C   0  0
    4.1437   13.1774    0.0000 C   0  0  1  0  0  0
    4.8937   11.8783    0.0000 O   0  0
    4.1437   10.5793    0.0000 C   0  0
    2.5980   10.5000    0.0000 C   0  0  2  0  0  0
    1.2990    9.7500    0.0000 C   0  0
   -0.0001   10.5000    0.0000 O   0  0
    1.2990    8.2500    0.0000 C   0  0
    2.5980    7.5000    0.0000 C   0  0  2  0  0  0
    1.7320    7.0000    0.0000 O   0  0
    5.3572   14.1286    0.0000 O   0  0
    4.8937   15.5552    0.0000 C   0  0
    6.3830   15.3761    0.0000 C   0  0
    4.2633   16.9163    0.0000 C   0  0
    3.3937   15.5552    0.0000 C   0  0
    2.9302   14.1286    0.0000 C   0  0  1  0  0  0
    1.4954   13.6912    0.0000 O   0  0
    3.8971    3.7500    0.0000 C   0  0
  1  2  1  0
  3  2  1  6
  3  4  1  0
  4  5  2  0
  5  6  1  0
  6  7  2  0
  7  8  1  0
  8  9  2  0
  9  4  1  0
  9 10  1  0
 11 10  1  1
 11 12  1  0
 12 13  1  0
 14 13  1  6
 14 15  1  0
 15 16  2  0
 17 16  1  1
 17 18  1  0
 19 18  1  1
 19 20  1  0
 20 21  1  0
 21 22  1  1
 21 23  1  0
 23 24  1  0
 21 25  1  0
 25 26  1  0
 26 19  1  0
 26 27  1  1
 19 28  1  0
 28 29  1  6
 28 30  1  0
 30 17  1  0
 30 31  1  6
 30 32  1  0
 32 15  1  0
 32 33  1  1
 32 34  1  0
 34 35  1  1
 34 36  1  0
 37 36  1  1
 37 14  1  0
 37 38  1  0
 38 11  1  0
 38  3  1  0
 38 39  1  1
  7 40  1  0
 40 41  1  0
 41 42  1  1
 41 43  1  0
 43 44  1  1
 44 45  1  0
 46 45  1  6
 46 47  1  0
 47 48  2  0
 48 49  1  0
 50 49  1  6
 50 51  1  0
 51 52  1  6
 51 53  1  0
 53 54  1  1
 54 55  1  0
 56 55  1  1
 56 47  1  0
 56 50  1  0
 56 57  1  0
 57 58  2  0
 57 59  1  0
 59 60  1  0
 60 46  1  0
 60 41  1  0
 60 61  1  6
 53 62  1  0
 62 63  1  0
 63 64  1  0
 63 65  1  0
 63 66  1  0
 66 67  1  0
 67 53  1  0
 67 68  1  6
 43 69  1  0
 69  6  1  0
M  END
> <Smiles>
CO[C@H]1c2nc3c(nc2C[C@@H]2CC[C@H]4C5=C[C@@H]6O[C@]7(O[C@](C)(CO)C[C@H]7O)[C@@H](C)[C@]6(O)[C@@]5(C)[C@H](O)C[C@@H]4[C@]21C)C[C@@]1(C)[C@@H](CC[C@H]2C4=CC[C@@H]5[C@H](C)[C@@]6(OC[C@]45C(=O)C[C@@]21O)OC
(C)(C)C[C@H]6O)C3

> <ID>
CHEMBL421638

> <standard_value>
3.7

> <IC50_uM>
0.0037

> <Activity>
Yes

> <pIC50>
8.431798276

> <BCI>
1

$$$$

  SciTegic03012415362D

 32 34  0  0  0  0            999 V2000
    2.5930   -4.5039    0.0000 N   0  0
    2.5951   -3.0039    0.0000 C   0  0
    2.5973   -1.5031    0.0000 C   0  0
    1.2990   -0.7500    0.0000 C   0  0
    1.2990    0.7500    0.0000 C   0  0
    2.5988    1.5004    0.0000 C   0  0
    3.8978    2.2504    0.0000 N   0  0
    0.0000    1.5000    0.0000 C   0  0
   -1.2990    0.7500    0.0000 C   0  0
   -2.5987    1.5004    0.0000 C   0  0
   -2.6012    3.0004    0.0000 C   0  0
   -3.9015    3.7484    0.0000 C   0  0
   -5.1993    2.9963    0.0000 C   0  0
   -6.5018    3.7420    0.0000 N   0  3
   -7.7986    2.9880    0.0000 O   0  0
   -6.5068    5.2419    0.0000 O   0  5
   -5.1969    1.4963    0.0000 C   0  0
   -3.8967    0.7484    0.0000 C   0  0
   -1.2990   -0.7500    0.0000 C   0  0
   -2.5972   -1.5031    0.0000 C   0  0
   -2.5951   -3.0039    0.0000 C   0  0
   -1.2948   -3.7517    0.0000 O   0  0
   -3.8933   -3.7570    0.0000 C   0  0
   -3.8934   -5.2570    0.0000 C   0  0
   -5.1924   -6.0071    0.0000 C   0  0
   -6.4914   -5.2571    0.0000 C   0  0
   -7.7927   -6.0049    0.0000 N   0  3
   -9.0907   -5.2531    0.0000 O   0  0
   -7.7953   -7.5049    0.0000 O   0  5
   -6.4915   -3.7571    0.0000 C   0  0
   -5.1925   -3.0071    0.0000 C   0  0
    0.0000   -1.5000    0.0000 O   0  0
  1  2  3  0
  2  3  1  0
  3  4  1  0
  4  5  2  0
  5  6  1  0
  6  7  3  0
  5  8  1  0
  8  9  1  0
  9 10  1  0
 10 11  2  0
 11 12  1  0
 12 13  2  0
 13 14  1  0
 14 15  2  0
 14 16  1  0
 13 17  1  0
 17 18  2  0
 18 10  1  0
  9 19  2  0
 19 20  1  0
 20 21  1  0
 21 22  2  0
 21 23  1  0
 23 24  2  0
 24 25  1  0
 25 26  2  0
 26 27  1  0
 27 28  2  0
 27 29  1  0
 26 30  1  0
 30 31  2  0
 31 23  1  0
 19 32  1  0
 32  4  1  0
M  CHG  4  14   1  16  -1  27   1  29  -1
M  END
> <Smiles>
N#CCC1=C(C#N)CC(c2ccc([N+](=O)[O-])cc2)=C(CC(=O)c2ccc([N+](=O)[O-])cc2)O1

> <ID>
CHEMBL1766439

> <standard_value>
5

> <IC50_uM>
0.005

> <Activity>
Yes

> <pIC50>
8.301029996

> <BCI>
1

$$$$

  SciTegic03012415362D

 66 78  0  0  1  0            999 V2000
    2.5981   -1.5000    0.0000 C   0  0
    1.2990   -0.7500    0.0000 C   0  0  2  0  0  0
    1.2990    0.7500    0.0000 C   0  0  1  0  0  0
    2.3947    1.7666    0.0000 C   0  0
    1.7758    3.1330    0.0000 C   0  0
    0.2851    2.9666    0.0000 C   0  0
   -0.8572    3.9479    0.0000 C   0  0  2  0  0  0
   -0.5697    5.4202    0.0000 C   0  0
   -1.7010    6.4052    0.0000 C   0  0
   -3.1197    5.9180    0.0000 C   0  0  1  0  0  0
   -4.2509    6.9030    0.0000 C   0  0
   -5.6696    6.4158    0.0000 C   0  0
   -6.8009    7.4009    0.0000 N   0  0
   -8.2195    6.9137    0.0000 C   0  0
   -8.5070    5.4415    0.0000 C   0  0
   -7.3757    4.4565    0.0000 N   0  0
   -5.9570    4.9436    0.0000 C   0  0
   -4.8258    3.9586    0.0000 C   0  0
   -3.4071    4.4458    0.0000 C   0  0  1  0  0  0
   -3.5987    3.4643    0.0000 C   0  0
   -2.2759    3.4608    0.0000 C   0  0  2  0  0  0
   -1.5217    2.8041    0.0000 O   0  0
   -2.5633    1.9886    0.0000 C   0  0
   -1.4321    1.0035    0.0000 C   0  0
   -1.7173   -0.4691    0.0000 O   0  0
    0.0000    1.5000    0.0000 C   0  0  2  0  0  0
   -1.2990    0.7500    0.0000 C   0  0
   -1.2990   -0.7500    0.0000 O   0  0
    0.0000   -1.5000    0.0000 C   0  0  2  0  0  0
   -0.5753   -2.9306    0.0000 O   0  0
    0.5394   -3.9343    0.0000 C   0  0
   -0.8399   -4.5238    0.0000 C   0  0
    1.7659   -4.7978    0.0000 C   0  0
    1.8384   -3.1842    0.0000 C   0  0
    1.5266   -1.7170    0.0000 C   0  0  1  0  0  0
    2.5504   -0.6208    0.0000 O   0  0
   -9.9256    4.9543    0.0000 C   0  0
  -11.0569    5.9393    0.0000 C   0  0  2  0  0  0
  -12.4756    5.4521    0.0000 C   0  0
  -13.6068    6.4372    0.0000 C   0  0
  -13.3194    7.9094    0.0000 C   0  0  1  0  0  0
  -14.4507    8.8944    0.0000 C   0  0
  -15.9368    8.7356    0.0000 C   0  0
  -16.5609   10.0997    0.0000 C   0  0  2  0  0  0
  -17.8420   10.8614    0.0000 O   0  0
  -17.5305   12.3287    0.0000 C   0  0  2  0  0  0
  -18.9607   12.9157    0.0000 C   0  0
  -19.2345   14.3905    0.0000 C   0  0
  -18.0941   15.3650    0.0000 C   0  0  2  0  0  0
  -16.9311   16.3123    0.0000 C   0  0
  -19.5196   15.8320    0.0000 O   0  0
  -16.6800   14.8647    0.0000 C   0  0
  -16.4063   13.3899    0.0000 O   0  0
  -16.0388   12.4859    0.0000 C   0  0  1  0  0  0
  -15.2777   13.7785    0.0000 C   0  0
  -15.4565   11.1147    0.0000 C   0  0  1  0  0  0
  -14.7073   11.7771    0.0000 O   0  0
  -14.1632   10.3666    0.0000 C   0  0  2  0  0  0
  -14.0666   11.3619    0.0000 C   0  0
  -12.7446   10.8538    0.0000 C   0  0  2  0  0  0
  -12.4571   12.3260    0.0000 O   0  0
  -11.6133    9.8687    0.0000 C   0  0
  -11.9007    8.3965    0.0000 C   0  0  2  0  0  0
  -10.7695    7.4115    0.0000 C   0  0  2  0  0  0
  -10.4820    8.8837    0.0000 C   0  0
   -9.3508    7.8987    0.0000 C   0  0
  2  1  1  1
  2  3  1  0
  3  4  1  6
  4  5  1  0
  5  6  2  0
  6  7  1  0
  7  8  1  1
  8  9  1  0
 10  9  1  6
 10 11  1  0
 11 12  1  0
 12 13  2  0
 13 14  1  0
 14 15  2  0
 15 16  1  0
 16 17  2  0
 17 12  1  0
 17 18  1  0
 18 19  1  0
 19 10  1  0
 19 20  1  6
 19 21  1  0
 21  7  1  0
 21 22  1  1
 21 23  1  0
 23 24  1  0
 24 25  2  0
 24 26  1  0
 26  6  1  0
 26  3  1  0
 26 27  1  6
 27 28  1  0
 29 28  1  6
 29  2  1  0
 29 30  1  0
 30 31  1  0
 31 32  1  0
 31 33  1  0
 31 34  1  0
 34 35  1  0
 35 29  1  0
 35 36  1  6
 15 37  1  0
 38 37  1  6
 38 39  1  0
 39 40  1  0
 41 40  1  1
 41 42  1  0
 42 43  2  0
 44 43  1  6
 44 45  1  0
 46 45  1  6
 46 47  1  0
 47 48  1  0
 48 49  1  0
 49 50  1  1
 49 51  1  0
 49 52  1  0
 52 53  1  0
 53 46  1  0
 46 54  1  0
 54 55  1  1
 54 56  1  0
 56 44  1  0
 56 57  1  1
 56 58  1  0
 58 42  1  0
 58 59  1  6
 58 60  1  0
 60 61  1  6
 60 62  1  0
 63 62  1  6
 63 41  1  0
 63 64  1  0
 64 38  1  0
 64 65  1  6
 64 66  1  0
 66 14  1  0
M  END
> <Smiles>
C[C@@H]1[C@H]2CC=C3[C@@H]4CC[C@H]5Cc6nc7c(nc6C[C@]5(C)[C@@]4(O)CC(=O)[C@@]32CO[C@]12OC(C)(C)C[C@H]2O)C[C@@H]1CC[C@H]2C3=C[C@@H]4O[C@@]5(CC[C@](C)(O)CO5)[C@@H](C)[C@]4(O)[C@@]3(C)[C@H](O)C[C@@H]2[C@@]1
(C)C7

> <ID>
CHEMBL2304376

> <standard_value>
5.2

> <IC50_uM>
0.0052

> <Activity>
Yes

> <pIC50>
8.283996656

> <BCI>
1

$$$$

  SciTegic03012415362D

 68 80  0  0  1  0            999 V2000
    2.6044   -2.9977    0.0000 C   0  0
    2.6003   -1.4977    0.0000 O   0  0
    1.2990   -0.7500    0.0000 C   0  0  1  0  0  0
    1.2990    0.7500    0.0000 C   0  0
    2.5981    1.5000    0.0000 N   0  0
    2.5981    3.0000    0.0000 C   0  0
    1.2990    3.7500    0.0000 C   0  0
    0.0000    3.0000    0.0000 N   0  0
    0.0000    1.5000    0.0000 C   0  0
   -1.2990    0.7500    0.0000 C   0  0
   -1.2990   -0.7500    0.0000 C   0  0  2  0  0  0
   -2.5981   -1.5000    0.0000 C   0  0
   -2.5981   -3.0000    0.0000 C   0  0
   -1.2990   -3.7500    0.0000 C   0  0  1  0  0  0
   -1.2990   -5.2500    0.0000 C   0  0
   -2.3946   -6.2666    0.0000 C   0  0
   -1.7758   -7.6330    0.0000 C   0  0  2  0  0  0
   -2.0426   -9.0994    0.0000 O   0  0
   -0.7314   -9.8280    0.0000 C   0  0  1  0  0  0
   -0.0217  -11.1946    0.0000 O   0  0
   -1.0363  -12.2994    0.0000 C   0  0  2  0  0  0
   -2.1764  -13.2741    0.0000 C   0  0
    0.3812  -12.7503    0.0000 C   0  0
    1.5061  -11.7580    0.0000 O   0  0
   -2.4006  -11.6758    0.0000 C   0  0
   -2.2292  -10.1857    0.0000 C   0  0  1  0  0  0
   -3.3515   -9.1905    0.0000 O   0  0
    0.3667   -8.8062    0.0000 C   0  0  1  0  0  0
    1.8413   -9.0811    0.0000 C   0  0
   -0.2850   -7.4666    0.0000 C   0  0  1  0  0  0
    0.7065   -7.3366    0.0000 O   0  0
    0.0000   -6.0000    0.0000 C   0  0  2  0  0  0
    0.8142   -6.5807    0.0000 C   0  0
    1.2991   -5.2500    0.0000 C   0  0  2  0  0  0
    2.5981   -6.0000    0.0000 O   0  0
    1.2991   -3.7500    0.0000 C   0  0
    0.0000   -3.0000    0.0000 C   0  0  2  0  0  0
    0.0000   -1.5000    0.0000 C   0  0  1  0  0  0
    1.2990   -2.2500    0.0000 C   0  0
    1.2990    5.2500    0.0000 C   0  0
    2.5980    6.0000    0.0000 C   0  0  1  0  0  0
    1.2990    6.7500    0.0000 C   0  0
    3.8971    5.2500    0.0000 C   0  0  1  0  0  0
    5.1961    6.0000    0.0000 C   0  0
    5.1961    7.5000    0.0000 C   0  0
    3.8971    8.2500    0.0000 C   0  0  1  0  0  0
    3.8970    9.7500    0.0000 C   0  0
    4.5606   11.3494    0.0000 C   0  0
    3.5283   12.4376    0.0000 C   0  0
    1.8937   11.8783    0.0000 C   0  0  2  0  0  0
    2.6437   13.1774    0.0000 C   0  0  2  0  0  0
    1.8937   14.4764    0.0000 C   0  0
    4.1437   13.1774    0.0000 C   0  0  1  0  0  0
    4.8937   11.8783    0.0000 O   0  0
    4.1437   10.5793    0.0000 C   0  0
    2.5980   10.5000    0.0000 C   0  0  2  0  0  0
    1.2990    9.7500    0.0000 C   0  0
   -0.0001   10.5000    0.0000 O   0  0
    1.2990    8.2500    0.0000 C   0  0
    2.5980    7.5000    0.0000 C   0  0  2  0  0  0
    5.3572   14.1286    0.0000 O   0  0
    4.8937   15.5552    0.0000 C   0  0
    6.3830   15.3761    0.0000 C   0  0
    4.2633   16.9163    0.0000 C   0  0
    3.3937   15.5552    0.0000 C   0  0
    2.9302   14.1286    0.0000 C   0  0  1  0  0  0
    1.4954   13.6912    0.0000 O   0  0
    3.8971    3.7500    0.0000 C   0  0
  1  2  1  0
  3  2  1  6
  3  4  1  0
  4  5  2  0
  5  6  1  0
  6  7  2  0
  7  8  1  0
  8  9  2  0
  9  4  1  0
  9 10  1  0
 11 10  1  1
 11 12  1  0
 12 13  1  0
 14 13  1  6
 14 15  1  0
 15 16  2  0
 17 16  1  1
 17 18  1  0
 19 18  1  1
 19 20  1  0
 20 21  1  0
 21 22  1  1
 21 23  1  0
 23 24  1  0
 21 25  1  0
 25 26  1  0
 26 19  1  0
 26 27  1  1
 19 28  1  0
 28 29  1  6
 28 30  1  0
 30 17  1  0
 30 31  1  6
 30 32  1  0
 32 15  1  0
 32 33  1  1
 32 34  1  0
 34 35  1  1
 34 36  1  0
 37 36  1  1
 37 14  1  0
 37 38  1  0
 38 11  1  0
 38  3  1  0
 38 39  1  1
  7 40  1  0
 40 41  1  0
 41 42  1  1
 41 43  1  0
 43 44  1  1
 44 45  1  0
 46 45  1  6
 46 47  1  0
 47 48  2  0
 48 49  1  0
 50 49  1  6
 50 51  1  0
 51 52  1  6
 51 53  1  0
 53 54  1  1
 54 55  1  0
 56 55  1  1
 56 47  1  0
 56 50  1  0
 56 57  1  0
 57 58  2  0
 57 59  1  0
 60 59  1  1
 60 46  1  0
 60 41  1  0
 53 61  1  0
 61 62  1  0
 62 63  1  0
 62 64  1  0
 62 65  1  0
 65 66  1  0
 66 53  1  0
 66 67  1  6
 43 68  1  0
 68  6  1  0
M  END
> <Smiles>
CO[C@H]1c2nc3c(nc2C[C@@H]2CC[C@H]4C5=C[C@@H]6O[C@]7(O[C@](C)(CO)C[C@H]7O)[C@@H](C)[C@]6(O)[C@@]5(C)[C@H](O)C[C@@H]4[C@]21C)C[C@@]1(C)[C@@H](CC[C@H]2C4=CC[C@@H]5[C@H](C)[C@@]6(OC[C@]45C(=O)C[C@@H]21)OC
(C)(C)C[C@H]6O)C3

> <ID>
CHEMBL504202

> <standard_value>
7.8

> <IC50_uM>
0.0078

> <Activity>
Yes

> <pIC50>
8.107905397

> <BCI>
1

$$$$

  SciTegic03012415362D

 24 25  0  0  0  0            999 V2000
    3.8983   -0.7459    0.0000 C   0  0
    2.6003   -1.4977    0.0000 O   0  0
    1.2990   -0.7500    0.0000 C   0  0
    1.2990    0.7500    0.0000 C   0  0
    0.0000    1.5000    0.0000 C   0  0
   -1.2990    0.7500    0.0000 C   0  0
   -2.5973    1.5031    0.0000 C   0  0
   -2.5951    3.0039    0.0000 C   0  0
   -1.2948    3.7533    0.0000 C   0  0
   -1.2905    5.2533    0.0000 C   0  0
    0.0107    5.9996    0.0000 C   0  0
    0.0118    7.5005    0.0000 O   0  0
   -1.2862    8.2523    0.0000 C   0  0
    1.3076    5.2460    0.0000 C   0  0
    2.6110    5.9901    0.0000 O   0  0
    3.9068    5.2345    0.0000 C   0  0
    1.3034    3.7460    0.0000 C   0  0
    2.5995    2.9892    0.0000 O   0  0
    2.5931    1.4893    0.0000 C   0  0
    0.0022    2.9997    0.0000 C   0  0
   -1.2990   -0.7500    0.0000 C   0  0
   -2.5981   -1.5000    0.0000 N   0  0
    0.0000   -1.5000    0.0000 C   0  0
    0.0000   -3.0000    0.0000 N   0  0
  1  2  1  0
  2  3  1  0
  3  4  2  0
  4  5  1  0
  5  6  2  0
  6  7  1  0
  7  8  2  0
  8  9  1  0
  9 10  2  0
 10 11  1  0
 11 12  1  0
 12 13  1  0
 11 14  2  0
 14 15  1  0
 15 16  1  0
 14 17  1  0
 17 18  1  0
 18 19  1  0
 17 20  2  0
 20  9  1  0
  6 21  1  0
 21 22  1  0
 21 23  2  0
 23  3  1  0
 23 24  1  0
M  END
> <Smiles>
COc1ccc(/C=C\c2cc(OC)c(OC)c(OC)c2)c(N)c1N

> <ID>
CHEMBL256278

> <standard_value>
8.3

> <IC50_uM>
0.0083

> <Activity>
Yes

> <pIC50>
8.080921908

> <BCI>
1

$$$$

  SciTegic03012415362D

 96100  0  0  1  0            999 V2000
   12.0515  -10.3195    0.0000 C   0  0
   10.6287   -9.8446    0.0000 C   0  0
   10.3275   -8.3743    0.0000 C   0  0  2  0  0  0
   11.4499   -7.3792    0.0000 C   0  0
    8.9039   -7.8991    0.0000 C   0  0  1  0  0  0
    8.6011   -6.4292    0.0000 C   0  0  1  0  0  0
    9.7220   -5.4312    0.0000 C   0  0
    9.4192   -3.9613    0.0000 C   0  0
    7.9954   -3.4893    0.0000 O   0  0
   10.5381   -2.9650    0.0000 N   0  0
   12.0054   -3.2769    0.0000 C   0  0
   12.7554   -1.9778    0.0000 C   0  0
   11.7516   -0.8631    0.0000 C   0  0
   10.4003   -1.4841    0.0000 C   0  0  1  0  0  0
    9.0990   -0.7364    0.0000 C   0  0  2  0  0  0
    9.0994    0.7644    0.0000 O   0  0
   10.3982    1.5148    0.0000 C   0  0
    7.8003   -1.4887    0.0000 C   0  0  1  0  0  0
    7.8029   -2.9887    0.0000 C   0  0
    6.4990   -0.7409    0.0000 C   0  0
    6.4964    0.7591    0.0000 O   0  0
    5.2003   -1.4932    0.0000 N   0  0
    3.8990   -0.7455    0.0000 C   0  0
    2.6003   -1.4977    0.0000 C   0  0
    1.2990   -0.7500    0.0000 C   0  0
    1.2990    0.7500    0.0000 C   0  0
    0.0000    1.5000    0.0000 C   0  0
   -1.2990    0.7500    0.0000 C   0  0
   -1.2990   -0.7500    0.0000 C   0  0
   -2.5981   -1.5000    0.0000 C   0  0
   -2.5981   -3.0000    0.0000 N   0  0
   -1.2990   -3.7500    0.0000 C   0  0
    0.0000   -3.0000    0.0000 C   0  0
    0.0000   -1.5000    0.0000 C   0  0
    7.1755   -5.9598    0.0000 O   0  0
    6.0562   -6.9585    0.0000 C   0  0
    7.7829   -8.8971    0.0000 N   0  0
    6.3591   -8.4251    0.0000 C   0  0
    8.0858  -10.3670    0.0000 C   0  0
    9.5096  -10.8390    0.0000 O   0  0
    6.9648  -11.3650    0.0000 C   0  0  1  0  0  0
    7.2676  -12.8349    0.0000 N   0  0
    6.1467  -13.8329    0.0000 C   0  0
    4.7228  -13.3609    0.0000 O   0  0
    6.4495  -15.3028    0.0000 C   0  0  2  0  0  0
    7.8731  -15.7780    0.0000 C   0  0
    8.1741  -17.2475    0.0000 C   0  0
    8.9955  -14.7829    0.0000 C   0  0
    5.3285  -16.3008    0.0000 N   0  0
    3.9047  -15.8288    0.0000 C   0  0
    5.6313  -17.7707    0.0000 C   0  0
    7.0552  -18.2427    0.0000 O   0  0
    4.5104  -18.7687    0.0000 O   0  0
    4.8132  -20.2386    0.0000 C   0  0
    3.6922  -21.2366    0.0000 C   0  0
    3.9928  -22.7062    0.0000 C   0  0
    2.8704  -23.7013    0.0000 C   0  0
    1.4474  -23.2269    0.0000 C   0  0
    0.3224  -24.2202    0.0000 N   0  0
   -1.1007  -23.7435    0.0000 C   0  0
   -1.3988  -22.2734    0.0000 O   0  0
   -2.2258  -24.7369    0.0000 C   0  0  2  0  0  0
   -1.9306  -26.2084    0.0000 C   0  0
   -3.0567  -27.2005    0.0000 C   0  0
   -2.7616  -28.6720    0.0000 C   0  0
   -3.8877  -29.6641    0.0000 N   0  0
   -3.5925  -31.1356    0.0000 C   0  0
   -2.1712  -31.6150    0.0000 N   0  0
   -4.7180  -32.1272    0.0000 O   0  0
   -3.6489  -24.2601    0.0000 N   0  0
   -4.7739  -25.2535    0.0000 C   0  0
   -4.4759  -26.7236    0.0000 O   0  0
   -6.1970  -24.7767    0.0000 C   0  0  1  0  0  0
   -7.3221  -25.7701    0.0000 N   0  0
   -8.7452  -25.2933    0.0000 C   0  0
   -9.0432  -23.8233    0.0000 O   0  0
   -9.8702  -26.2867    0.0000 C   0  0
  -11.2933  -25.8100    0.0000 C   0  0
  -12.4183  -26.8033    0.0000 C   0  0
  -13.8414  -26.3266    0.0000 C   0  0
  -14.9665  -27.3199    0.0000 C   0  0
  -16.3896  -26.8432    0.0000 N   0  0
  -17.5921  -27.7183    0.0000 C   0  0
  -17.5999  -29.2182    0.0000 O   0  0
  -18.7958  -26.8231    0.0000 C   0  0
  -18.3164  -25.4018    0.0000 C   0  0
  -16.8165  -25.4185    0.0000 C   0  0
  -15.9142  -24.2202    0.0000 O   0  0
   -6.4983  -23.3064    0.0000 C   0  0
   -7.9211  -22.8315    0.0000 C   0  0
   -5.3759  -22.3113    0.0000 C   0  0
    1.1468  -21.7573    0.0000 C   0  0
    2.2692  -20.7622    0.0000 C   0  0
    5.5392  -10.8956    0.0000 C   0  0
    4.4200  -11.8943    0.0000 C   0  0
    5.2335   -9.4271    0.0000 C   0  0
  1  2  1  0
  2  3  1  0
  3  4  1  1
  3  5  1  0
  5  6  1  0
  6  7  1  6
  7  8  1  0
  8  9  2  0
  8 10  1  0
 10 11  1  0
 11 12  1  0
 12 13  1  0
 14 13  1  6
 14 10  1  0
 14 15  1  0
 15 16  1  1
 16 17  1  0
 15 18  1  0
 18 19  1  1
 18 20  1  0
 20 21  2  0
 20 22  1  0
 22 23  1  0
 23 24  1  0
 24 25  1  0
 25 26  2  0
 26 27  1  0
 27 28  2  0
 28 29  1  0
 29 30  2  0
 30 31  1  0
 31 32  2  0
 32 33  1  0
 33 34  2  0
 34 25  1  0
 34 29  1  0
  6 35  1  0
 35 36  1  0
  5 37  1  6
 37 38  1  0
 37 39  1  0
 39 40  2  0
 39 41  1  0
 41 42  1  1
 42 43  1  0
 43 44  2  0
 45 43  1  6
 45 46  1  0
 46 47  1  0
 46 48  1  0
 45 49  1  0
 49 50  1  0
 49 51  1  0
 51 52  2  0
 51 53  1  0
 53 54  1  0
 54 55  1  0
 55 56  2  0
 56 57  1  0
 57 58  2  0
 58 59  1  0
 59 60  1  0
 60 61  2  0
 60 62  1  0
 62 63  1  6
 63 64  1  0
 64 65  1  0
 65 66  1  0
 66 67  1  0
 67 68  1  0
 67 69  2  0
 62 70  1  0
 70 71  1  0
 71 72  2  0
 71 73  1  0
 73 74  1  1
 74 75  1  0
 75 76  2  0
 75 77  1  0
 77 78  1  0
 78 79  1  0
 79 80  1  0
 80 81  1  0
 81 82  1  0
 82 83  1  0
 83 84  2  0
 83 85  1  0
 85 86  2  0
 86 87  1  0
 87 82  1  0
 87 88  2  0
 73 89  1  0
 89 90  1  0
 89 91  1  0
 58 92  1  0
 92 93  2  0
 93 55  1  0
 41 94  1  0
 94 95  1  0
 94 96  1  0
M  END
> <Smiles>
CC[C@H](C)[C@@H]([C@@H](CC(=O)N1CCC[C@H]1[C@H](OC)[C@@H](C)C(=O)NCCc1cccc2cnccc12)OC)N(C)C(=O)[C@@H](NC(=O)[C@H](C(C)C)N(C)C(=O)OCc1ccc(NC(=O)[C@H](CCCNC(N)=O)NC(=O)[C@@H](NC(=O)CCCCCN2C(=O)C=CC2=O)C(
C)C)cc1)C(C)C

> <ID>
CHEMBL4176658

> <standard_value>
9.72

> <IC50_uM>
0.00972

> <Activity>
Yes

> <pIC50>
8.012333735

> <BCI>
1

$$$$

  SciTegic03012415362D

 96100  0  0  1  0            999 V2000
   14.9628   -5.2771    0.0000 C   0  0
   13.8401   -4.2824    0.0000 C   0  0
   12.4161   -4.7567    0.0000 C   0  0  2  0  0  0
   12.1156   -6.2263    0.0000 C   0  0
   11.2928   -3.7614    0.0000 C   0  0  1  0  0  0
    9.8684   -4.2341    0.0000 C   0  0  1  0  0  0
    9.5646   -5.7039    0.0000 C   0  0
    8.1402   -6.1766    0.0000 C   0  0
    7.0195   -5.1796    0.0000 O   0  0
    7.8369   -7.6438    0.0000 N   0  0
    8.8406   -8.7585    0.0000 C   0  0
    8.0906  -10.0575    0.0000 C   0  0
    6.6233   -9.7456    0.0000 C   0  0
    6.4855   -8.2648    0.0000 C   0  0  1  0  0  0
    5.1873   -7.5117    0.0000 C   0  0  2  0  0  0
    3.8877   -8.2626    0.0000 O   0  0
    3.8873   -9.7626    0.0000 C   0  0
    5.1894   -6.0109    0.0000 C   0  0  1  0  0  0
    6.4897   -5.2632    0.0000 C   0  0
    3.8912   -5.2578    0.0000 C   0  0
    2.5909   -6.0056    0.0000 O   0  0
    3.8933   -3.7570    0.0000 N   0  0
    2.5951   -3.0039    0.0000 C   0  0
    2.5973   -1.5031    0.0000 C   0  0
    1.2990   -0.7500    0.0000 C   0  0
    1.2990    0.7500    0.0000 C   0  0
    0.0000    1.5000    0.0000 C   0  0
   -1.2990    0.7500    0.0000 C   0  0
   -2.5981    1.5000    0.0000 C   0  0
   -3.8971    0.7500    0.0000 C   0  0
   -3.8971   -0.7500    0.0000 N   0  0
   -2.5981   -1.5000    0.0000 C   0  0
   -1.2990   -0.7500    0.0000 C   0  0
    0.0000   -1.5000    0.0000 C   0  0
    8.7491   -3.2342    0.0000 O   0  0
    9.0543   -1.7656    0.0000 C   0  0
   11.5966   -2.2916    0.0000 N   0  0
   10.4759   -1.2946    0.0000 C   0  0
   13.0210   -1.8189    0.0000 C   0  0
   14.1417   -2.8159    0.0000 O   0  0
   13.3248   -0.3491    0.0000 C   0  0  1  0  0  0
   14.7492    0.1236    0.0000 N   0  0
   15.0529    1.5933    0.0000 C   0  0
   13.9323    2.5904    0.0000 O   0  0
   16.4774    2.0661    0.0000 C   0  0  2  0  0  0
   17.6007    1.0708    0.0000 C   0  0
   19.0239    1.5448    0.0000 C   0  0
   17.3002   -0.3988    0.0000 C   0  0
   16.7811    3.5358    0.0000 N   0  0
   15.6605    4.5329    0.0000 C   0  0
   18.2056    4.0085    0.0000 C   0  0
   19.3262    3.0115    0.0000 O   0  0
   18.5093    5.4783    0.0000 O   0  0
   19.9338    5.9510    0.0000 C   0  0
   20.2375    7.4208    0.0000 C   0  0
   21.6605    7.8953    0.0000 C   0  0
   21.9611    9.3649    0.0000 C   0  0
   20.8387   10.3600    0.0000 C   0  0
   21.1365   11.8310    0.0000 N   0  0
   20.0121   12.8251    0.0000 C   0  0
   18.5899   12.3482    0.0000 O   0  0
   20.3098   14.2961    0.0000 C   0  0  2  0  0  0
   21.7318   14.7762    0.0000 C   0  0
   22.0279   16.2475    0.0000 C   0  0
   23.4498   16.7277    0.0000 C   0  0
   23.7459   18.1990    0.0000 N   0  0
   25.1679   18.6791    0.0000 C   0  0
   26.2937   17.6879    0.0000 N   0  0
   25.4639   20.1496    0.0000 O   0  0
   19.1854   15.2902    0.0000 N   0  0
   19.4831   16.7611    0.0000 C   0  0
   20.9053   17.2381    0.0000 O   0  0
   18.3587   17.7552    0.0000 C   0  0  1  0  0  0
   18.6564   19.2262    0.0000 N   0  0
   17.5320   20.2203    0.0000 C   0  0
   16.1099   19.7433    0.0000 O   0  0
   17.8298   21.6913    0.0000 C   0  0
   16.7054   22.6853    0.0000 C   0  0
   17.0031   24.1563    0.0000 C   0  0
   15.8787   25.1504    0.0000 C   0  0
   16.1764   26.6214    0.0000 C   0  0
   15.0520   27.6154    0.0000 N   0  0
   15.2085   29.0944    0.0000 C   0  0
   16.5037   29.8512    0.0000 O   0  0
   13.8315   29.6892    0.0000 C   0  0
   12.8403   28.5634    0.0000 C   0  0
   13.6047   27.2728    0.0000 C   0  0
   13.0181   25.8922    0.0000 O   0  0
   16.9348   17.2809    0.0000 C   0  0
   15.8121   18.2757    0.0000 C   0  0
   16.6342   15.8114    0.0000 C   0  0
   19.4157    9.8856    0.0000 C   0  0
   19.1151    8.4160    0.0000 C   0  0
   12.2055    0.6508    0.0000 C   0  0
   12.5107    2.1194    0.0000 C   0  0
   10.7809    0.1812    0.0000 C   0  0
  1  2  1  0
  2  3  1  0
  3  4  1  6
  3  5  1  0
  5  6  1  0
  6  7  1  1
  7  8  1  0
  8  9  2  0
  8 10  1  0
 10 11  1  0
 11 12  1  0
 12 13  1  0
 14 13  1  1
 14 10  1  0
 14 15  1  0
 15 16  1  6
 16 17  1  0
 15 18  1  0
 18 19  1  6
 18 20  1  0
 20 21  2  0
 20 22  1  0
 22 23  1  0
 23 24  1  0
 24 25  1  0
 25 26  2  0
 26 27  1  0
 27 28  2  0
 28 29  1  0
 29 30  2  0
 30 31  1  0
 31 32  2  0
 32 33  1  0
 33 28  1  0
 33 34  2  0
 34 25  1  0
  6 35  1  0
 35 36  1  0
  5 37  1  1
 37 38  1  0
 37 39  1  0
 39 40  2  0
 39 41  1  0
 41 42  1  6
 42 43  1  0
 43 44  2  0
 45 43  1  1
 45 46  1  0
 46 47  1  0
 46 48  1  0
 45 49  1  0
 49 50  1  0
 49 51  1  0
 51 52  2  0
 51 53  1  0
 53 54  1  0
 54 55  1  0
 55 56  2  0
 56 57  1  0
 57 58  2  0
 58 59  1  0
 59 60  1  0
 60 61  2  0
 60 62  1  0
 62 63  1  1
 63 64  1  0
 64 65  1  0
 65 66  1  0
 66 67  1  0
 67 68  1  0
 67 69  2  0
 62 70  1  0
 70 71  1  0
 71 72  2  0
 71 73  1  0
 73 74  1  6
 74 75  1  0
 75 76  2  0
 75 77  1  0
 77 78  1  0
 78 79  1  0
 79 80  1  0
 80 81  1  0
 81 82  1  0
 82 83  1  0
 83 84  2  0
 83 85  1  0
 85 86  2  0
 86 87  1  0
 87 82  1  0
 87 88  2  0
 73 89  1  0
 89 90  1  0
 89 91  1  0
 58 92  1  0
 92 93  2  0
 93 55  1  0
 41 94  1  0
 94 95  1  0
 94 96  1  0
M  END
> <Smiles>
CC[C@H](C)[C@@H]([C@@H](CC(=O)N1CCC[C@H]1[C@H](OC)[C@@H](C)C(=O)NCCc1ccc2ccncc2c1)OC)N(C)C(=O)[C@@H](NC(=O)[C@H](C(C)C)N(C)C(=O)OCc1ccc(NC(=O)[C@H](CCCNC(N)=O)NC(=O)[C@@H](NC(=O)CCCCCN2C(=O)C=CC2=O)C(
C)C)cc1)C(C)C

> <ID>
CHEMBL4169859

> <standard_value>
9.72

> <IC50_uM>
0.00972

> <Activity>
Yes

> <pIC50>
8.012333735

> <BCI>
1

$$$$

  SciTegic03012415362D

 26 29  0  0  1  0            999 V2000
    5.9843   -1.7144    0.0000 C   0  0
    5.6526   -0.2515    0.0000 O   0  0
    4.2194    0.1938    0.0000 C   0  0
    3.1198   -0.8265    0.0000 C   0  0
    1.6852   -0.3846    0.0000 C   0  0
    1.3514    1.0778    0.0000 C   0  0
    2.4522    2.0983    0.0000 C   0  0
    3.8856    1.6562    0.0000 C   0  0
    4.9837    2.6793    0.0000 O   0  0
    4.6476    4.1420    0.0000 C   0  0
    5.7457    5.1651    0.0000 C   0  0
    5.4120    6.6275    0.0000 C   0  0
    6.5115    7.6478    0.0000 C   0  0
    7.9449    7.2057    0.0000 C   0  0
    8.2787    5.7433    0.0000 C   0  0
    7.1792    4.7230    0.0000 C   0  0
    0.0000    1.7286    0.0000 N   0  0
   -1.3515    1.0777    0.0000 C   0  0
   -1.6852   -0.3847    0.0000 C   0  0  2  0  0  0
   -3.0899   -0.9120    0.0000 C   0  0
   -3.0226   -2.4105    0.0000 C   0  0  2  0  0  0
   -4.1953   -3.3457    0.0000 F   0  0
   -1.5767   -2.8095    0.0000 C   0  0
   -0.7500   -1.5574    0.0000 N   0  0
    0.7500   -1.5574    0.0000 C   0  0
    1.4008   -2.9088    0.0000 O   0  0
  1  2  1  0
  2  3  1  0
  3  4  2  0
  4  5  1  0
  5  6  2  0
  6  7  1  0
  7  8  2  0
  8  3  1  0
  8  9  1  0
  9 10  1  0
 10 11  1  0
 11 12  2  0
 12 13  1  0
 13 14  2  0
 14 15  1  0
 15 16  2  0
 16 11  1  0
  6 17  1  0
 17 18  2  0
 19 18  1  1
 19 20  1  0
 20 21  1  0
 21 22  1  1
 21 23  1  0
 23 24  1  0
 24 19  1  0
 24 25  1  0
 25  5  1  0
 25 26  2  0
M  END
> <Smiles>
COc1cc2c(cc1OCc1ccccc1)N=C[C@@H]1C[C@H](F)CN1C2=O

> <ID>
CHEMBL88768

> <standard_value>
10

> <IC50_uM>
0.01

> <Activity>
Yes

> <pIC50>
8

> <BCI>
1

$$$$

  SciTegic03012415362D

 24 27  0  0  0  0            999 V2000
    3.8976   -0.7553    0.0000 C   0  0
    2.5973   -1.5031    0.0000 N   0  0
    1.2990   -0.7500    0.0000 C   0  0
    1.2990    0.7500    0.0000 C   0  0
    0.0000    1.5000    0.0000 C   0  0
   -1.2990    0.7500    0.0000 C   0  0
   -2.5981    1.5000    0.0000 C   0  0
   -3.8971    0.7500    0.0000 C   0  0
   -3.8971   -0.7500    0.0000 C   0  0
   -2.5981   -1.5000    0.0000 C   0  0
   -1.2990   -0.7500    0.0000 C   0  0
    0.0000   -1.5000    0.0000 C   0  0
    2.5951   -3.0039    0.0000 C   0  0
    3.8915   -3.7585    0.0000 C   0  0
    3.8864   -5.2585    0.0000 C   0  0
    2.5847   -6.0040    0.0000 C   0  0
    2.5795   -7.5040    0.0000 N   0  0
    1.2779   -8.2495    0.0000 C   0  0
    1.2727   -9.7495    0.0000 N   0  0
   -0.0185   -7.4950    0.0000 N   0  0
   -0.0133   -5.9950    0.0000 C   0  0
   -1.3098   -5.2405    0.0000 N   0  0
    1.2883   -5.2495    0.0000 C   0  0
    1.2935   -3.7495    0.0000 N   0  0
  1  2  1  0
  2  3  1  0
  3  4  2  0
  4  5  1  0
  5  6  2  0
  6  7  1  0
  7  8  2  0
  8  9  1  0
  9 10  2  0
 10 11  1  0
 11  6  1  0
 11 12  2  0
 12  3  1  0
  2 13  1  0
 13 14  2  0
 14 15  1  0
 15 16  2  0
 16 17  1  0
 17 18  2  0
 18 19  1  0
 18 20  1  0
 20 21  2  0
 21 22  1  0
 21 23  1  0
 23 16  1  0
 23 24  2  0
 24 13  1  0
M  END
> <Smiles>
CN(c1ccc2ccccc2c1)c1ccc2nc(N)nc(N)c2n1

> <ID>
CHEMBL139430

> <standard_value>
10

> <IC50_uM>
0.01

> <Activity>
Yes

> <pIC50>
8

> <BCI>
1

$$$$

  SciTegic03012415362D

 20 22  0  0  0  0            999 V2000
    3.8976   -0.7553    0.0000 C   0  0
    2.5973   -1.5031    0.0000 N   0  0
    2.5951   -3.0039    0.0000 C   0  0
    3.8915   -3.7585    0.0000 C   0  0
    3.8864   -5.2585    0.0000 C   0  0
    2.5847   -6.0040    0.0000 C   0  0
    1.2883   -5.2495    0.0000 C   0  0
    1.2935   -3.7495    0.0000 C   0  0
    1.2990   -0.7500    0.0000 C   0  0
    1.2990    0.7500    0.0000 C   0  0
    0.0000    1.5000    0.0000 C   0  0
   -1.2990    0.7500    0.0000 C   0  0
   -2.5981    1.5000    0.0000 N   0  0
   -3.8971    0.7500    0.0000 C   0  0
   -5.1962    1.5000    0.0000 N   0  0
   -3.8971   -0.7500    0.0000 N   0  0
   -2.5981   -1.5000    0.0000 C   0  0
   -2.5981   -3.0000    0.0000 N   0  0
   -1.2990   -0.7500    0.0000 C   0  0
    0.0000   -1.5000    0.0000 N   0  0
  1  2  1  0
  2  3  1  0
  3  4  2  0
  4  5  1  0
  5  6  2  0
  6  7  1  0
  7  8  2  0
  8  3  1  0
  2  9  1  0
  9 10  2  0
 10 11  1  0
 11 12  2  0
 12 13  1  0
 13 14  2  0
 14 15  1  0
 14 16  1  0
 16 17  2  0
 17 18  1  0
 17 19  1  0
 19 12  1  0
 19 20  2  0
 20  9  1  0
M  END
> <Smiles>
CN(c1ccccc1)c1ccc2nc(N)nc(N)c2n1

> <ID>
CHEMBL140940

> <standard_value>
10

> <IC50_uM>
0.01

> <Activity>
Yes

> <pIC50>
8

> <BCI>
1

$$$$

  SciTegic03012415362D

 20 22  0  0  0  0            999 V2000
    7.7802    3.0211    0.0000 C   0  0
    7.7876    1.5211    0.0000 O   0  0
    6.4920    0.7636    0.0000 C   0  0
    6.4972   -0.7364    0.0000 C   0  0
    5.2007   -1.4909    0.0000 C   0  0
    3.8990   -0.7455    0.0000 C   0  0
    2.6003   -1.4977    0.0000 N   0  0
    2.6030   -2.9977    0.0000 C   0  0
    1.2990   -0.7500    0.0000 C   0  0
    1.2990    0.7500    0.0000 N   0  0
    0.0000    1.5000    0.0000 C   0  0
   -1.2990    0.7500    0.0000 N   0  0
   -1.2990   -0.7500    0.0000 C   0  0
   -2.4133   -1.7530    0.0000 O   0  0
   -1.8032   -3.1233    0.0000 C   0  0
   -0.3114   -2.9665    0.0000 C   0  0
    0.6924   -4.0811    0.0000 C   0  0
    0.0000   -1.5000    0.0000 C   0  0
    3.8939    0.7546    0.0000 C   0  0
    5.1903    1.5091    0.0000 C   0  0
  1  2  1  0
  2  3  1  0
  3  4  2  0
  4  5  1  0
  5  6  2  0
  6  7  1  0
  7  8  1  0
  7  9  1  0
  9 10  2  0
 10 11  1  0
 11 12  2  0
 12 13  1  0
 13 14  1  0
 14 15  1  0
 15 16  2  0
 16 17  1  0
 16 18  1  0
 18  9  1  0
 18 13  2  0
  6 19  1  0
 19 20  2  0
 20  3  1  0
M  END
> <Smiles>
COc1ccc(N(C)c2ncnc3occ(C)c23)cc1

> <ID>
CHEMBL4250191

> <standard_value>
10.1

> <IC50_uM>
0.0101

> <Activity>
Yes

> <pIC50>
7.995678626

> <BCI>
1

$$$$

  SciTegic03012415362D

 33 37  0  0  1  0            999 V2000
    3.8892   -8.2560    0.0000 C   0  0
    5.1893   -7.5079    0.0000 O   0  0
    5.1924   -6.0070    0.0000 C   0  0
    3.8934   -5.2570    0.0000 C   0  0
    3.8933   -3.7570    0.0000 C   0  0
    2.5951   -3.0039    0.0000 C   0  0
    2.5973   -1.5031    0.0000 C   0  0
    1.2990   -0.7500    0.0000 C   0  0
    1.2990    0.7500    0.0000 C   0  0
    0.0000    1.5000    0.0000 C   0  0
    0.0000    3.0000    0.0000 O   0  0
   -1.2990    0.7500    0.0000 C   0  0
   -1.2990   -0.7500    0.0000 C   0  0
    0.0000   -1.5000    0.0000 C   0  0
   -2.5981   -1.5000    0.0000 C   0  0
   -3.8971   -0.7500    0.0000 C   0  0  2  0  0  0
   -5.1962   -1.5000    0.0000 C   0  0
   -3.8798   -2.2191    0.0000 C   0  0
   -6.5124   -2.2193    0.0000 C   0  0
   -6.4952   -0.7500    0.0000 C   0  0  2  0  0  0
   -7.7942   -1.5000    0.0000 O   0  0
   -6.4952    0.7500    0.0000 C   0  0
   -5.1962    1.5000    0.0000 C   0  0
   -3.8971    0.7500    0.0000 C   0  0  2  0  0  0
   -3.8971    2.2500    0.0000 C   0  0
   -2.5981    1.5000    0.0000 O   0  0
    5.1925   -3.0070    0.0000 C   0  0
    6.4915   -3.7571    0.0000 C   0  0
    6.4915   -5.2571    0.0000 C   0  0
    7.9172   -5.7206    0.0000 C   0  0
    8.7989   -4.5071    0.0000 C   0  0
    7.9172   -3.2936    0.0000 N   0  0
    8.3807   -1.8670    0.0000 C   0  0
  1  2  1  0
  2  3  1  0
  3  4  2  0
  4  5  1  0
  5  6  1  0
  6  7  2  0
  7  8  1  0
  8  9  2  0
  9 10  1  0
 10 11  1  0
 10 12  2  0
 12 13  1  0
 13 14  2  0
 14  8  1  0
 13 15  1  0
 16 15  1  6
 16 17  1  0
 17 18  1  0
 17 19  1  0
 17 20  1  0
 20 21  1  6
 20 22  1  0
 22 23  1  0
 23 24  1  0
 24 16  1  0
 24 25  1  6
 24 26  1  0
 26 12  1  0
  5 27  2  0
 27 28  1  0
 28 29  2  0
 29  3  1  0
 29 30  1  0
 30 31  2  0
 31 32  1  0
 32 28  1  0
 32 33  1  0
M  END
> <Smiles>
COc1cc(/C=C/c2cc(O)c3c(c2)C[C@@H]2C(C)(C)[C@H](O)CC[C@@]2(C)O3)cc2c1ccn2C

> <ID>
CHEMBL3233620

> <standard_value>
12.88

> <IC50_uM>
0.01288

> <Activity>
Yes

> <pIC50>
7.890084137

> <BCI>
1

$$$$

  SciTegic03012415362D

 20 22  0  0  0  0            999 V2000
    7.7802    3.0211    0.0000 C   0  0
    7.7876    1.5211    0.0000 O   0  0
    6.4920    0.7636    0.0000 C   0  0
    6.4972   -0.7364    0.0000 C   0  0
    5.2007   -1.4909    0.0000 C   0  0
    3.8990   -0.7455    0.0000 C   0  0
    2.6003   -1.4977    0.0000 N   0  0
    2.6030   -2.9977    0.0000 C   0  0
    1.2990   -0.7500    0.0000 C   0  0
    1.2990    0.7500    0.0000 N   0  0
    0.0000    1.5000    0.0000 C   0  0
    0.0000    3.0000    0.0000 C   0  0
   -1.2990    0.7500    0.0000 N   0  0
   -1.2990   -0.7500    0.0000 C   0  0
    0.0000   -1.5000    0.0000 C   0  0
   -0.3114   -2.9665    0.0000 C   0  0
   -1.8032   -3.1233    0.0000 C   0  0
   -2.4133   -1.7530    0.0000 C   0  0
    3.8939    0.7546    0.0000 C   0  0
    5.1903    1.5091    0.0000 C   0  0
  1  2  1  0
  2  3  1  0
  3  4  2  0
  4  5  1  0
  5  6  2  0
  6  7  1  0
  7  8  1  0
  7  9  1  0
  9 10  2  0
 10 11  1  0
 11 12  1  0
 11 13  2  0
 13 14  1  0
 14 15  2  0
 15  9  1  0
 15 16  1  0
 16 17  1  0
 17 18  1  0
 18 14  1  0
  6 19  1  0
 19 20  2  0
 20  3  1  0
M  END
> <Smiles>
COc1ccc(N(C)c2nc(C)nc3c2CCC3)cc1.Cl

> <ID>
CHEMBL2425924

> <standard_value>
13.9

> <IC50_uM>
0.0139

> <Activity>
Yes

> <pIC50>
7.8569852

> <BCI>
1

> <RemovedSalts>
HCl

$$$$

  SciTegic03012415362D

 22 25  0  0  0  0            999 V2000
    2.5981   -1.5000    0.0000 C   0  0
    1.2990   -0.7500    0.0000 C   0  0
    1.2990    0.7500    0.0000 N   0  0
    0.0000    1.5000    0.0000 C   0  0
    0.0031    3.0008    0.0000 N   0  0
   -1.2947    3.7531    0.0000 C   0  0
    1.3039    3.7494    0.0000 C   0  0
    1.3092    5.2494    0.0000 C   0  0
    2.6108    5.9949    0.0000 C   0  0
    3.9072    5.2405    0.0000 C   0  0
    3.9020    3.7405    0.0000 C   0  0
    2.6004    2.9949    0.0000 C   0  0
    5.3262    3.2720    0.0000 C   0  0
    6.2120    4.4825    0.0000 C   0  0
    5.3345    5.6991    0.0000 O   0  0
   -1.2990    0.7500    0.0000 C   0  0
   -2.7248    1.2135    0.0000 C   0  0
   -3.6065    0.0000    0.0000 C   0  0
   -5.1065    0.0000    0.0000 C   0  0
   -2.7248   -1.2135    0.0000 O   0  0
   -1.2990   -0.7500    0.0000 C   0  0
    0.0000   -1.5000    0.0000 N   0  0
  1  2  1  0
  2  3  2  0
  3  4  1  0
  4  5  1  0
  5  6  1  0
  5  7  1  0
  7  8  2  0
  8  9  1  0
  9 10  2  0
 10 11  1  0
 11 12  2  0
 12  7  1  0
 11 13  1  0
 13 14  1  0
 14 15  1  0
 15 10  1  0
  4 16  2  0
 16 17  1  0
 17 18  2  0
 18 19  1  0
 18 20  1  0
 20 21  1  0
 21 16  1  0
 21 22  2  0
 22  2  1  0
M  END
> <Smiles>
Cc1nc(N(C)c2ccc3c(c2)CCO3)c2cc(C)oc2n1

> <ID>
CHEMBL3403513

> <standard_value>
13.9

> <IC50_uM>
0.0139

> <Activity>
Yes

> <pIC50>
7.8569852

> <BCI>
1

$$$$

  SciTegic03012415362D

 25 27  0  0  0  0            999 V2000
    0.2919  -10.9165    0.0000 C   0  0
    1.7919  -10.9187    0.0000 O   0  0
    2.5450   -9.6205    0.0000 C   0  0
    1.7951   -8.3214    0.0000 C   0  0
    2.5451   -7.0223    0.0000 C   0  0
    1.7974   -5.7210    0.0000 C   0  0
    0.2966   -5.7184    0.0000 C   0  0
   -1.2034   -5.7158    0.0000 N   0  0
    2.5497   -4.4224    0.0000 C   0  0
    1.8032   -3.1233    0.0000 C   0  0
    2.4133   -1.7530    0.0000 C   0  0
    1.2990   -0.7500    0.0000 C   0  0
    1.2990    0.7500    0.0000 C   0  0
    0.0000    1.5000    0.0000 C   0  0
   -1.2990    0.7500    0.0000 C   0  0
   -1.2990   -0.7500    0.0000 C   0  0
    0.0000   -1.5000    0.0000 C   0  0
    0.3114   -2.9665    0.0000 N   0  0
    4.0452   -7.0225    0.0000 C   0  0
    4.7951   -8.3215    0.0000 C   0  0
    6.2959   -8.3185    0.0000 O   0  0
    7.0441   -7.0184    0.0000 C   0  0
    4.0450   -9.6205    0.0000 C   0  0
    4.7927  -10.9219    0.0000 O   0  0
    4.0408  -12.2198    0.0000 C   0  0
  1  2  1  0
  2  3  1  0
  3  4  2  0
  4  5  1  0
  5  6  1  0
  6  7  1  0
  7  8  3  0
  6  9  2  0
  9 10  1  0
 10 11  2  0
 11 12  1  0
 12 13  2  0
 13 14  1  0
 14 15  2  0
 15 16  1  0
 16 17  2  0
 17 12  1  0
 17 18  1  0
 18 10  1  0
  5 19  2  0
 19 20  1  0
 20 21  1  0
 21 22  1  0
 20 23  2  0
 23  3  1  0
 23 24  1  0
 24 25  1  0
M  END
> <Smiles>
COc1cc(/C(C#N)=C/c2cc3ccccc3[nH]2)cc(OC)c1OC

> <ID>
CHEMBL3409050

> <standard_value>
15

> <IC50_uM>
0.015

> <Activity>
Yes

> <pIC50>
7.823908741

> <BCI>
1

$$$$

  SciTegic03012415362D

 96100  0  0  1  0            999 V2000
   12.0515  -10.3195    0.0000 C   0  0
   10.6287   -9.8446    0.0000 C   0  0
   10.3275   -8.3743    0.0000 C   0  0  2  0  0  0
   11.4499   -7.3792    0.0000 C   0  0
    8.9039   -7.8991    0.0000 C   0  0  1  0  0  0
    8.6011   -6.4292    0.0000 C   0  0  1  0  0  0
    9.7220   -5.4312    0.0000 C   0  0
    9.4192   -3.9613    0.0000 C   0  0
    7.9954   -3.4893    0.0000 O   0  0
   10.5381   -2.9650    0.0000 N   0  0
   12.0054   -3.2769    0.0000 C   0  0
   12.7554   -1.9778    0.0000 C   0  0
   11.7516   -0.8631    0.0000 C   0  0
   10.4003   -1.4841    0.0000 C   0  0  1  0  0  0
    9.0990   -0.7364    0.0000 C   0  0  2  0  0  0
    9.0994    0.7644    0.0000 O   0  0
   10.3982    1.5148    0.0000 C   0  0
    7.8003   -1.4887    0.0000 C   0  0  1  0  0  0
    7.8029   -2.9887    0.0000 C   0  0
    6.4990   -0.7409    0.0000 C   0  0
    6.4964    0.7591    0.0000 O   0  0
    5.2003   -1.4932    0.0000 N   0  0
    3.8990   -0.7455    0.0000 C   0  0
    2.6003   -1.4977    0.0000 C   0  0
    1.2990   -0.7500    0.0000 C   0  0
    1.2990    0.7500    0.0000 C   0  0
    0.0000    1.5000    0.0000 C   0  0
   -1.2990    0.7500    0.0000 C   0  0
   -1.2990   -0.7500    0.0000 C   0  0
   -2.5981   -1.5000    0.0000 C   0  0
   -2.5981   -3.0000    0.0000 C   0  0
   -1.2990   -3.7500    0.0000 N   0  0
    0.0000   -3.0000    0.0000 C   0  0
    0.0000   -1.5000    0.0000 C   0  0
    7.1755   -5.9598    0.0000 O   0  0
    6.0562   -6.9585    0.0000 C   0  0
    7.7829   -8.8971    0.0000 N   0  0
    6.3591   -8.4251    0.0000 C   0  0
    8.0858  -10.3670    0.0000 C   0  0
    9.5096  -10.8390    0.0000 O   0  0
    6.9648  -11.3650    0.0000 C   0  0  1  0  0  0
    7.2676  -12.8349    0.0000 N   0  0
    6.1467  -13.8329    0.0000 C   0  0
    4.7228  -13.3609    0.0000 O   0  0
    6.4495  -15.3028    0.0000 C   0  0  2  0  0  0
    7.8731  -15.7780    0.0000 C   0  0
    8.1741  -17.2475    0.0000 C   0  0
    8.9955  -14.7829    0.0000 C   0  0
    5.3285  -16.3008    0.0000 N   0  0
    3.9047  -15.8288    0.0000 C   0  0
    5.6313  -17.7707    0.0000 C   0  0
    7.0552  -18.2427    0.0000 O   0  0
    4.5104  -18.7687    0.0000 O   0  0
    4.8132  -20.2386    0.0000 C   0  0
    3.6922  -21.2366    0.0000 C   0  0
    3.9928  -22.7062    0.0000 C   0  0
    2.8704  -23.7013    0.0000 C   0  0
    1.4474  -23.2269    0.0000 C   0  0
    0.3224  -24.2202    0.0000 N   0  0
   -1.1007  -23.7435    0.0000 C   0  0
   -1.3988  -22.2734    0.0000 O   0  0
   -2.2258  -24.7369    0.0000 C   0  0  2  0  0  0
   -1.9306  -26.2084    0.0000 C   0  0
   -3.0567  -27.2005    0.0000 C   0  0
   -2.7616  -28.6720    0.0000 C   0  0
   -3.8877  -29.6641    0.0000 N   0  0
   -3.5925  -31.1356    0.0000 C   0  0
   -2.1712  -31.6150    0.0000 N   0  0
   -4.7180  -32.1272    0.0000 O   0  0
   -3.6489  -24.2601    0.0000 N   0  0
   -4.7739  -25.2535    0.0000 C   0  0
   -4.4759  -26.7236    0.0000 O   0  0
   -6.1970  -24.7767    0.0000 C   0  0  1  0  0  0
   -7.3221  -25.7701    0.0000 N   0  0
   -8.7452  -25.2933    0.0000 C   0  0
   -9.0432  -23.8233    0.0000 O   0  0
   -9.8702  -26.2867    0.0000 C   0  0
  -11.2933  -25.8100    0.0000 C   0  0
  -12.4183  -26.8033    0.0000 C   0  0
  -13.8414  -26.3266    0.0000 C   0  0
  -14.9665  -27.3199    0.0000 C   0  0
  -16.3896  -26.8432    0.0000 N   0  0
  -17.5921  -27.7183    0.0000 C   0  0
  -17.5999  -29.2182    0.0000 O   0  0
  -18.7958  -26.8231    0.0000 C   0  0
  -18.3164  -25.4018    0.0000 C   0  0
  -16.8165  -25.4185    0.0000 C   0  0
  -15.9142  -24.2202    0.0000 O   0  0
   -6.4983  -23.3064    0.0000 C   0  0
   -7.9211  -22.8315    0.0000 C   0  0
   -5.3759  -22.3113    0.0000 C   0  0
    1.1468  -21.7573    0.0000 C   0  0
    2.2692  -20.7622    0.0000 C   0  0
    5.5392  -10.8956    0.0000 C   0  0
    4.4200  -11.8943    0.0000 C   0  0
    5.2335   -9.4271    0.0000 C   0  0
  1  2  1  0
  2  3  1  0
  3  4  1  1
  3  5  1  0
  5  6  1  0
  6  7  1  6
  7  8  1  0
  8  9  2  0
  8 10  1  0
 10 11  1  0
 11 12  1  0
 12 13  1  0
 14 13  1  6
 14 10  1  0
 14 15  1  0
 15 16  1  1
 16 17  1  0
 15 18  1  0
 18 19  1  1
 18 20  1  0
 20 21  2  0
 20 22  1  0
 22 23  1  0
 23 24  1  0
 24 25  1  0
 25 26  2  0
 26 27  1  0
 27 28  2  0
 28 29  1  0
 29 30  2  0
 30 31  1  0
 31 32  2  0
 32 33  1  0
 33 34  2  0
 34 25  1  0
 34 29  1  0
  6 35  1  0
 35 36  1  0
  5 37  1  6
 37 38  1  0
 37 39  1  0
 39 40  2  0
 39 41  1  0
 41 42  1  1
 42 43  1  0
 43 44  2  0
 45 43  1  6
 45 46  1  0
 46 47  1  0
 46 48  1  0
 45 49  1  0
 49 50  1  0
 49 51  1  0
 51 52  2  0
 51 53  1  0
 53 54  1  0
 54 55  1  0
 55 56  2  0
 56 57  1  0
 57 58  2  0
 58 59  1  0
 59 60  1  0
 60 61  2  0
 60 62  1  0
 62 63  1  6
 63 64  1  0
 64 65  1  0
 65 66  1  0
 66 67  1  0
 67 68  1  0
 67 69  2  0
 62 70  1  0
 70 71  1  0
 71 72  2  0
 71 73  1  0
 73 74  1  1
 74 75  1  0
 75 76  2  0
 75 77  1  0
 77 78  1  0
 78 79  1  0
 79 80  1  0
 80 81  1  0
 81 82  1  0
 82 83  1  0
 83 84  2  0
 83 85  1  0
 85 86  2  0
 86 87  1  0
 87 82  1  0
 87 88  2  0
 73 89  1  0
 89 90  1  0
 89 91  1  0
 58 92  1  0
 92 93  2  0
 93 55  1  0
 41 94  1  0
 94 95  1  0
 94 96  1  0
M  END
> <Smiles>
CC[C@H](C)[C@@H]([C@@H](CC(=O)N1CCC[C@H]1[C@H](OC)[C@@H](C)C(=O)NCCc1cccc2ccncc12)OC)N(C)C(=O)[C@@H](NC(=O)[C@H](C(C)C)N(C)C(=O)OCc1ccc(NC(=O)[C@H](CCCNC(N)=O)NC(=O)[C@@H](NC(=O)CCCCCN2C(=O)C=CC2=O)C(
C)C)cc1)C(C)C

> <ID>
CHEMBL4170896

> <standard_value>
16.5

> <IC50_uM>
0.0165

> <Activity>
Yes

> <pIC50>
7.782516056

> <BCI>
1

$$$$

  SciTegic03012415362D

 23 26  0  0  0  0            999 V2000
    2.5951   -3.0031    0.0000 C   0  0
    2.5973   -1.5031    0.0000 O   0  0
    1.2990   -0.7500    0.0000 C   0  0
    1.2990    0.7500    0.0000 C   0  0
    0.0000    1.5000    0.0000 C   0  0
   -1.2990    0.7500    0.0000 C   0  0
   -1.2990   -0.7500    0.0000 C   0  0
    0.0000   -1.5000    0.0000 C   0  0
   -2.5981   -1.5000    0.0000 C   0  0
   -3.8971   -0.7500    0.0000 C   0  0
   -3.8971    0.7500    0.0000 C   0  0
   -2.5981    1.5000    0.0000 N   0  0
   -2.5981    3.0007    0.0000 C   0  0
   -1.2979    3.7488    0.0000 N   0  0
   -1.2955    5.2488    0.0000 C   0  0
    0.0047    5.9968    0.0000 C   0  0
   -2.5933    6.0009    0.0000 N   0  0
   -3.8936    5.2529    0.0000 C   0  0
   -5.3186    5.7187    0.0000 O   0  0
   -6.2022    4.5066    0.0000 C   0  0
   -7.7022    4.5089    0.0000 C   0  0
   -5.3224    3.2916    0.0000 C   0  0
   -3.8959    3.7529    0.0000 C   0  0
  1  2  1  0
  2  3  1  0
  3  4  2  0
  4  5  1  0
  5  6  2  0
  6  7  1  0
  7  8  2  0
  8  3  1  0
  7  9  1  0
  9 10  1  0
 10 11  1  0
 11 12  1  0
 12  6  1  0
 12 13  1  0
 13 14  2  0
 14 15  1  0
 15 16  1  0
 15 17  2  0
 17 18  1  0
 18 19  1  0
 19 20  1  0
 20 21  1  0
 20 22  2  0
 22 23  1  0
 23 13  1  0
 23 18  2  0
M  END
> <Smiles>
COc1ccc2c(c1)CCCN2c1nc(C)nc2oc(C)cc12

> <ID>
CHEMBL3403517

> <standard_value>
16.8

> <IC50_uM>
0.0168

> <Activity>
Yes

> <pIC50>
7.774690718

> <BCI>
1

$$$$

  SciTegic03012415362D

 37 40  0  0  1  0            999 V2000
   -3.2625   -8.8345    0.0000 C   0  0
   -1.7962   -9.1509    0.0000 C   0  0
   -2.8035  -10.2623    0.0000 C   0  0
   -1.3375  -10.5790    0.0000 O   0  0
   -0.7889   -8.0383    0.0000 C   0  0
   -1.2479   -6.6094    0.0000 C   0  0
   -0.2405   -5.4968    0.0000 C   0  0
    1.2257   -5.8132    0.0000 O   0  0
   -0.6995   -4.0679    0.0000 C   0  0  2  0  0  0
   -1.0057   -3.1159    0.0000 C   0  0
   -2.1657   -3.7515    0.0000 O   0  0
    0.3061   -2.9572    0.0000 C   0  0  1  0  0  0
    1.7979   -3.1140    0.0000 C   0  0  2  0  0  0
    2.5479   -4.4130    0.0000 O   0  0
    2.4080   -1.7436    0.0000 C   0  0
    1.2990   -0.7500    0.0000 C   0  0  1  0  0  0
    2.6686   -0.1382    0.0000 C   0  0
    1.2990    0.7500    0.0000 C   0  0  2  0  0  0
    2.5981    1.5000    0.0000 C   0  0
    2.5981    3.0000    0.0000 C   0  0
    1.2990    3.7500    0.0000 C   0  0
    0.0000    3.0000    0.0000 C   0  0  1  0  0  0
   -1.2991    3.7500    0.0000 C   0  0
   -1.2991    5.2500    0.0000 C   0  0  2  0  0  0
   -2.5981    6.0000    0.0000 O   0  0
    0.0000    6.0000    0.0000 C   0  0
   -0.0001    7.5000    0.0000 O   0  0
    1.2990    5.2500    0.0000 C   0  0
    2.5800    4.4696    0.0000 C   0  0
    1.2638    6.7496    0.0000 C   0  0
    0.0000    1.5000    0.0000 C   0  0  1  0  0  0
   -1.2991    2.2500    0.0000 C   0  0
   -1.2990    0.7500    0.0000 C   0  0
   -2.5981    1.5000    0.0000 O   0  0
   -1.2990   -0.7500    0.0000 C   0  0
    0.0000   -1.5000    0.0000 C   0  0  2  0  0  0
   -0.8097   -2.0868    0.0000 C   0  0
  1  2  1  0
  2  3  1  0
  2  4  1  0
  2  5  1  0
  5  6  2  0
  6  7  1  0
  7  8  2  0
  7  9  1  0
  9 10  1  1
  9 11  1  0
 12  9  1  6
 12 13  1  0
 13 14  1  1
 13 15  1  0
 15 16  1  0
 16 17  1  1
 16 18  1  0
 18 19  1  1
 19 20  1  0
 20 21  2  0
 21 22  1  0
 22 23  1  6
 23 24  1  0
 24 25  1  6
 24 26  1  0
 26 27  2  0
 26 28  1  0
 28 21  1  0
 28 29  1  0
 28 30  1  0
 22 31  1  0
 31 18  1  0
 31 32  1  6
 31 33  1  0
 33 34  2  0
 33 35  1  0
 35 36  1  0
 36 12  1  0
 36 16  1  0
 36 37  1  6
M  END
> <Smiles>
CC(C)(O)/C=C/C(=O)[C@](C)(O)[C@H]1[C@H](O)C[C@@]2(C)[C@@H]3CC=C4[C@@H](C[C@H](O)C(=O)C4(C)C)[C@]3(C)C(=O)C[C@]12C

> <ID>
CHEMBL493646

> <standard_value>
21

> <IC50_uM>
0.021

> <Activity>
Yes

> <pIC50>
7.677780705

> <BCI>
1

$$$$

  SciTegic03012415362D

 68 81  0  0  1  0            999 V2000
    9.3180    6.4235    0.0000 C   0  0
    9.8200    5.0100    0.0000 C   0  0  2  0  0  0
   11.3000    4.6200    0.0000 C   0  0  2  0  0  0
   11.2700    2.9800    0.0000 O   0  0
    9.8200    2.5000    0.0000 C   0  0  1  0  0  0
    8.9000    1.2500    0.0000 C   0  0
    7.4200    1.7400    0.0000 C   0  0
    6.0800    0.9600    0.0000 C   0  0  2  0  0  0
    6.0800   -0.5600    0.0000 C   0  0
    4.7400   -1.3600    0.0000 C   0  0
    3.3900   -0.5600    0.0000 C   0  0  1  0  0  0
    2.0600   -1.3600    0.0000 C   0  0
    0.7000   -0.5600    0.0000 C   0  0
   -0.6200   -1.3600    0.0000 N   0  0
   -1.9800   -0.5600    0.0000 C   0  0
   -1.9800    0.9600    0.0000 C   0  0
   -0.6200    1.7400    0.0000 N   0  0
    0.7000    0.9600    0.0000 C   0  0
    2.0600    1.7400    0.0000 C   0  0
    3.3900    0.9600    0.0000 C   0  0  1  0  0  0
    3.3949    2.4600    0.0000 C   0  0
    4.7400    1.7400    0.0000 C   0  0  1  0  0  0
    4.7400    3.2900    0.0000 C   0  0
    6.0800    4.0500    0.0000 C   0  0  1  0  0  0
    6.0800    5.5500    0.0000 O   0  0
    7.4200    3.2900    0.0000 C   0  0  1  0  0  0
    7.5271    4.2842    0.0000 C   0  0
    8.9000    3.7500    0.0000 C   0  0  1  0  0  0
    8.3184    4.5635    0.0000 O   0  0
   -3.3000    1.7400    0.0000 C   0  0
   -4.6500    0.9600    0.0000 C   0  0  2  0  0  0
   -5.9900    1.7400    0.0000 C   0  0
   -7.3200    0.9600    0.0000 C   0  0
   -7.3200   -0.5600    0.0000 C   0  0  1  0  0  0
   -8.6600   -1.3600    0.0000 C   0  0  1  0  0  0
   -8.9800    0.1500    0.0000 O   0  0
  -10.1100   -0.8800    0.0000 C   0  0  2  0  0  0
  -11.0600   -2.1300    0.0000 C   0  0
  -10.1100   -3.3900    0.0000 C   0  0  2  0  0  0
  -10.5900   -4.8400    0.0000 C   0  0  2  0  0  0
  -12.0586   -5.1455    0.0000 C   0  0
   -9.5700   -5.9800    0.0000 C   0  0  1  0  0  0
   -8.0700   -5.5900    0.0000 O   0  0
   -8.8200   -4.2900    0.0000 C   0  0
   -8.6600   -2.9100    0.0000 C   0  0  2  0  0  0
   -7.3200   -3.6800    0.0000 C   0  0
   -7.3200   -5.1800    0.0000 O   0  0
   -5.9800   -2.9100    0.0000 C   0  0
   -5.9900   -1.3600    0.0000 C   0  0  1  0  0  0
   -5.1188   -1.8508    0.0000 O   0  0
   -4.6500   -0.5600    0.0000 C   0  0  2  0  0  0
   -4.6484   -1.5600    0.0000 C   0  0
   -3.3000   -1.3600    0.0000 C   0  0
  -11.0700   -6.2400    0.0000 O   0  0
  -11.3000   -7.7600    0.0000 C   0  0
  -11.3412   -9.2594    0.0000 C   0  0
  -12.5544   -6.9375    0.0000 C   0  0
   -9.9200   -8.4400    0.0000 C   0  0
   -8.8400   -7.3500    0.0000 C   0  0  1  0  0  0
   -7.3559   -7.5676    0.0000 O   0  0
   11.7700    6.1600    0.0000 O   0  0
   13.2900    6.1500    0.0000 C   0  0  2  0  0  0
   14.7791    5.9695    0.0000 C   0  0
   12.6621    7.4979    0.0000 C   0  0
   11.1703    7.6546    0.0000 O   0  0
   13.7800    4.6800    0.0000 C   0  0
   12.5600    3.7500    0.0000 C   0  0  1  0  0  0
   12.5953    2.2504    0.0000 O   0  0
  2  1  1  6
  2  3  1  0
  3  4  1  1
  5  4  1  1
  5  6  1  0
  6  7  2  0
  7  8  1  0
  8  9  1  6
  9 10  1  0
 11 10  1  1
 11 12  1  0
 12 13  1  0
 13 14  2  0
 14 15  1  0
 15 16  2  0
 16 17  1  0
 17 18  2  0
 18 13  1  0
 18 19  1  0
 19 20  1  0
 20 11  1  0
 20 21  1  1
 20 22  1  0
 22  8  1  0
 22 23  1  1
 23 24  1  0
 24 25  1  1
 24 26  1  0
 26  7  1  0
 26 27  1  1
 26 28  1  0
 28  5  1  0
 28  2  1  0
 28 29  1  6
 16 30  1  0
 31 30  1  1
 31 32  1  0
 32 33  1  0
 34 33  1  6
 34 35  1  0
 35 36  1  1
 37 36  1  1
 37 35  1  0
 37 38  1  0
 39 38  1  1
 39 40  1  0
 40 41  1  1
 40 42  1  0
 42 43  1  1
 43 44  1  0
 45 44  1  1
 45 39  1  0
 45 35  1  0
 45 46  1  0
 46 47  2  0
 46 48  1  0
 48 49  1  0
 49 34  1  0
 49 50  1  6
 49 51  1  0
 51 31  1  0
 51 52  1  1
 51 53  1  0
 53 15  1  0
 42 54  1  0
 54 55  1  0
 55 56  1  0
 55 57  1  0
 55 58  1  0
 58 59  1  0
 59 42  1  0
 59 60  1  6
  3 61  1  0
 61 62  1  0
 62 63  1  1
 62 64  1  0
 64 65  1  0
 62 66  1  0
 66 67  1  0
 67  3  1  0
 67 68  1  1
M  END
> <Smiles>
C[C@@H]1[C@]2(O[C@H]3C=C4[C@@H]5CC[C@H]6Cc7nc8c(nc7C[C@]6(C)[C@H]5C[C@@H](O)[C@]4(C)[C@]31O)C[C@@H]1CC[C@H]3[C@@]45O[C@@H]4C[C@@H]4[C@H](C)[C@@]6(OC[C@@]45C(=O)C[C@]3(O)[C@@]1(C)C8)OC(C)(C)C[C@H]6O)O[
C@](C)(CO)C[C@H]2O

> <ID>
CHEMBL404389

> <standard_value>
21

> <IC50_uM>
0.021

> <Activity>
Yes

> <pIC50>
7.677780705

> <BCI>
1

$$$$

  SciTegic03012415362D

 26 30  0  0  1  0            999 V2000
    2.5981   -1.5000    0.0000 C   0  0
    1.2990   -0.7500    0.0000 N   0  0
    1.2990    0.7500    0.0000 C   0  0
    2.5981    1.5000    0.0000 O   0  0
    0.0000    1.5000    0.0000 C   0  0
    0.0000    3.0000    0.0000 C   0  0
   -1.2991    3.7500    0.0000 C   0  0
   -1.3022    5.2508    0.0000 N   0  3
   -2.6023    5.9990    0.0000 O   0  0
   -0.0044    6.0031    0.0000 O   0  5
   -2.5981    3.0000    0.0000 C   0  0
   -2.5981    1.5000    0.0000 C   0  0
   -1.2990    0.7500    0.0000 C   0  0
   -1.2990   -0.7500    0.0000 C   0  0  1  0  0  0
   -2.4133   -1.7530    0.0000 C   0  0
   -3.8805   -1.4410    0.0000 O   0  0
   -1.8032   -3.1233    0.0000 C   0  0
   -2.4134   -4.4924    0.0000 C   0  0
   -1.5318   -5.7059    0.0000 C   0  0
   -0.0400   -5.5491    0.0000 C   0  0
    0.5701   -4.1788    0.0000 C   0  0
   -0.3114   -2.9665    0.0000 C   0  0
    0.0000   -1.5000    0.0000 C   0  0  1  0  0  0
    0.5700   -6.9186    0.0000 O   0  0
   -0.5447   -7.9223    0.0000 C   0  0
   -1.8437   -7.1723    0.0000 O   0  0
  1  2  1  0
  2  3  1  0
  3  4  2  0
  3  5  1  0
  5  6  2  0
  6  7  1  0
  7  8  1  0
  8  9  2  0
  8 10  1  0
  7 11  2  0
 11 12  1  0
 12 13  2  0
 13  5  1  0
 14 13  1  6
 14 15  1  0
 15 16  2  0
 15 17  1  0
 17 18  2  0
 18 19  1  0
 19 20  2  0
 20 21  1  0
 21 22  2  0
 22 17  1  0
 23 22  1  6
 23 14  1  0
 23  2  1  0
 20 24  1  0
 24 25  1  0
 25 26  1  0
 26 19  1  0
M  CHG  2   8   1  10  -1
M  END
> <Smiles>
CN1C(=O)c2cc([N+](=O)[O-])ccc2[C@H]2C(=O)c3cc4c(cc3[C@H]21)OCO4

> <ID>
CHEMBL332208

> <standard_value>
24

> <IC50_uM>
0.024

> <Activity>
Yes

> <pIC50>
7.619788758

> <BCI>
1

$$$$

  SciTegic03012415362D

 68 80  0  0  1  0            999 V2000
    2.6044   -2.9977    0.0000 C   0  0
    2.6003   -1.4977    0.0000 O   0  0
    1.2990   -0.7500    0.0000 C   0  0  1  0  0  0
    1.2990    0.7500    0.0000 C   0  0
    2.5981    1.5000    0.0000 N   0  0
    2.5981    3.0000    0.0000 C   0  0
    1.2990    3.7500    0.0000 C   0  0
    0.0000    3.0000    0.0000 N   0  0
    0.0000    1.5000    0.0000 C   0  0
   -1.2990    0.7500    0.0000 C   0  0
   -1.2990   -0.7500    0.0000 C   0  0  2  0  0  0
   -2.5981   -1.5000    0.0000 C   0  0
   -2.5981   -3.0000    0.0000 C   0  0
   -1.2990   -3.7500    0.0000 C   0  0  1  0  0  0
   -1.2990   -5.2500    0.0000 C   0  0
   -1.9626   -6.8493    0.0000 C   0  0
   -0.9303   -7.9376    0.0000 C   0  0
    0.7043   -7.3783    0.0000 C   0  0  2  0  0  0
   -0.0457   -8.6773    0.0000 C   0  0  1  0  0  0
    0.7043   -9.9764    0.0000 C   0  0
   -1.5457   -8.6773    0.0000 C   0  0  2  0  0  0
   -2.2957   -7.3783    0.0000 O   0  0
   -1.5457   -6.0793    0.0000 C   0  0
    0.0000   -6.0000    0.0000 C   0  0  2  0  0  0
    1.2991   -5.2500    0.0000 C   0  0
    2.5981   -6.0000    0.0000 O   0  0
    1.2991   -3.7500    0.0000 C   0  0
    0.0000   -3.0000    0.0000 C   0  0  2  0  0  0
    0.0000   -1.5000    0.0000 C   0  0  1  0  0  0
    1.2990   -2.2500    0.0000 C   0  0
   -2.7592   -9.6286    0.0000 O   0  0
   -2.2957  -11.0552    0.0000 C   0  0
   -3.7850  -10.8760    0.0000 C   0  0
   -1.6653  -12.4163    0.0000 C   0  0
   -0.7957  -11.0552    0.0000 C   0  0
   -0.3322   -9.6286    0.0000 C   0  0  1  0  0  0
    1.1026   -9.1911    0.0000 O   0  0
    1.2990    5.2500    0.0000 C   0  0
    2.5980    6.0000    0.0000 C   0  0  1  0  0  0
    1.2990    6.7500    0.0000 C   0  0
    3.8971    5.2500    0.0000 C   0  0  1  0  0  0
    5.1961    6.0000    0.0000 C   0  0
    5.1961    7.5000    0.0000 C   0  0
    3.8971    8.2500    0.0000 C   0  0  1  0  0  0
    3.8970    9.7500    0.0000 C   0  0
    4.9927   10.7666    0.0000 C   0  0
    4.3738   12.1330    0.0000 C   0  0  2  0  0  0
    4.6406   13.5994    0.0000 O   0  0
    3.3294   14.3280    0.0000 C   0  0  1  0  0  0
    2.6197   15.6946    0.0000 O   0  0
    3.6343   16.7994    0.0000 C   0  0  2  0  0  0
    4.7744   17.7742    0.0000 C   0  0
    2.2168   17.2503    0.0000 C   0  0
    1.0919   16.2580    0.0000 O   0  0
    4.9986   16.1759    0.0000 C   0  0
    4.8272   14.6857    0.0000 C   0  0  1  0  0  0
    5.9495   13.6905    0.0000 O   0  0
    2.2313   13.3062    0.0000 C   0  0  1  0  0  0
    0.7567   13.5811    0.0000 C   0  0
    2.8830   11.9666    0.0000 C   0  0  1  0  0  0
    1.8915   11.8366    0.0000 O   0  0
    2.5980   10.5000    0.0000 C   0  0  2  0  0  0
    1.7839   11.0807    0.0000 C   0  0
    1.2990    9.7500    0.0000 C   0  0  2  0  0  0
   -0.0001   10.5000    0.0000 O   0  0
    1.2990    8.2500    0.0000 C   0  0
    2.5980    7.5000    0.0000 C   0  0  2  0  0  0
    3.8971    3.7500    0.0000 C   0  0
  1  2  1  0
  3  2  1  6
  3  4  1  0
  4  5  2  0
  5  6  1  0
  6  7  2  0
  7  8  1  0
  8  9  2  0
  9  4  1  0
  9 10  1  0
 11 10  1  1
 11 12  1  0
 12 13  1  0
 14 13  1  6
 14 15  1  0
 15 16  2  0
 16 17  1  0
 18 17  1  6
 18 19  1  0
 19 20  1  1
 19 21  1  0
 21 22  1  6
 22 23  1  0
 24 23  1  1
 24 15  1  0
 24 18  1  0
 24 25  1  0
 25 26  2  0
 25 27  1  0
 28 27  1  1
 28 14  1  0
 28 29  1  0
 29 11  1  0
 29  3  1  0
 29 30  1  1
 21 31  1  0
 31 32  1  0
 32 33  1  0
 32 34  1  0
 32 35  1  0
 35 36  1  0
 36 21  1  0
 36 37  1  6
  7 38  1  0
 38 39  1  0
 39 40  1  1
 39 41  1  0
 41 42  1  1
 42 43  1  0
 44 43  1  6
 44 45  1  0
 45 46  2  0
 47 46  1  1
 47 48  1  0
 49 48  1  1
 49 50  1  0
 50 51  1  0
 51 52  1  1
 51 53  1  0
 53 54  1  0
 51 55  1  0
 55 56  1  0
 56 49  1  0
 56 57  1  1
 49 58  1  0
 58 59  1  6
 58 60  1  0
 60 47  1  0
 60 61  1  6
 60 62  1  0
 62 45  1  0
 62 63  1  1
 62 64  1  0
 64 65  1  1
 64 66  1  0
 67 66  1  1
 67 44  1  0
 67 39  1  0
 41 68  1  0
 68  6  1  0
M  END
> <Smiles>
CO[C@H]1c2nc3c(nc2C[C@@H]2CC[C@H]4C5=CC[C@@H]6[C@@H](C)[C@]7(OC[C@]56C(=O)C[C@@H]4[C@]21C)OC(C)(C)C[C@H]7O)C[C@@]1(C)[C@@H](CC[C@H]2C4=C[C@@H]5O[C@]6(O[C@](C)(CO)C[C@H]6O)[C@@H](C)[C@]5(O)[C@@]4(C)[C@
H](O)C[C@@H]21)C3

> <ID>
CHEMBL403870

> <standard_value>
27

> <IC50_uM>
0.027

> <Activity>
Yes

> <pIC50>
7.568636236

> <BCI>
1

$$$$

  SciTegic03012415362D

 33 37  0  0  1  0            999 V2000
    2.5228   -3.0436    0.0000 C   0  0
    1.2626   -2.2300    0.0000 C   0  0
    1.2990   -0.7500    0.0000 C   0  0  1  0  0  0
    2.5793    0.0316    0.0000 O   0  0
    1.2990    0.7500    0.0000 C   0  0
    2.5981    1.5000    0.0000 O   0  0
    0.0000    1.5000    0.0000 O   0  0
   -1.2990    0.7500    0.0000 C   0  0
   -1.2990   -0.7500    0.0000 C   0  0
    0.0000   -1.5000    0.0000 C   0  0
    0.0000   -3.0000    0.0000 C   0  0
   -1.2990   -3.7500    0.0000 C   0  0
   -2.5981   -3.0000    0.0000 N   0  0
   -2.5981   -1.5000    0.0000 C   0  0
   -3.8971   -0.7500    0.0000 O   0  0
   -3.7124   -4.0030    0.0000 C   0  0  3  0  0  0
   -5.1785   -3.6942    0.0000 O   0  0
   -6.1813   -4.8108    0.0000 C   0  0
   -7.6499   -4.5015    0.0000 C   0  0
   -8.6522   -5.6175    0.0000 F   0  0
   -8.1157   -3.0757    0.0000 F   0  0
   -9.1176   -4.1917    0.0000 F   0  0
   -3.1022   -5.3733    0.0000 C   0  0
   -3.7125   -6.7424    0.0000 C   0  0
   -2.8308   -7.9559    0.0000 C   0  0
   -3.4409   -9.3262    0.0000 C   0  0
   -2.5592  -10.5397    0.0000 C   0  0
   -3.1693  -11.9101    0.0000 O   0  0
   -1.0674  -10.3829    0.0000 C   0  0
   -0.4573   -9.0126    0.0000 C   0  0
   -1.3390   -7.7991    0.0000 C   0  0
   -0.7289   -6.4288    0.0000 N   0  0
   -1.6105   -5.2165    0.0000 C   0  0
  1  2  1  0
  2  3  1  0
  3  4  1  1
  3  5  1  0
  5  6  2  0
  5  7  1  0
  7  8  1  0
  8  9  1  0
  9 10  2  0
 10  3  1  0
 10 11  1  0
 11 12  2  0
 12 13  1  0
 13 14  1  0
 14  9  1  0
 14 15  2  0
 13 16  1  0
 16 17  1  4
 17 18  1  0
 18 19  1  0
 19 20  1  0
 19 21  1  0
 19 22  1  0
 16 23  1  0
 23 24  2  0
 24 25  1  0
 25 26  2  0
 26 27  1  0
 27 28  1  0
 27 29  2  0
 29 30  1  0
 30 31  2  0
 31 25  1  0
 31 32  1  0
 32 33  2  0
 33 23  1  0
 33 12  1  0
M  END
> <Smiles>
CC[C@@]1(O)C(=O)OCc2c1cc1n(c2=O)C(OCC(F)(F)F)c2cc3cc(O)ccc3nc2-1

> <ID>
CHEMBL332859

> <standard_value>
30

> <IC50_uM>
0.03

> <Activity>
Yes

> <pIC50>
7.522878745

> <BCI>
1

$$$$

  SciTegic03012415362D

 26 29  0  0  0  0            999 V2000
    6.9841    5.2554    0.0000 C   0  0
    5.5263    4.9023    0.0000 O   0  0
    5.1020    3.4627    0.0000 C   0  0
    3.6446    3.1076    0.0000 C   0  0
    3.2235    1.6679    0.0000 C   0  0
    4.2568    0.5878    0.0000 C   0  0
    3.9511   -0.8815    0.0000 C   0  0
    2.5987   -1.5004    0.0000 C   0  0
    1.2990   -0.7500    0.0000 C   0  0
    1.2990    0.7500    0.0000 C   0  0
    0.0000    1.5000    0.0000 C   0  0
    0.0031    3.0008    0.0000 O   0  0
    1.3032    3.7490    0.0000 C   0  0
   -1.2990    0.7500    0.0000 C   0  0
   -1.2990   -0.7500    0.0000 C   0  0
    0.0000   -1.5000    0.0000 C   0  0
   -2.5981   -1.5000    0.0000 O   0  0
   -3.8971   -0.7500    0.0000 C   0  0
   -3.8971    0.7500    0.0000 C   0  0
   -2.5981    1.5000    0.0000 O   0  0
    2.7343   -2.9815    0.0000 N   0  0
    4.2010   -3.2956    0.0000 O   0  0
    4.9531   -1.9978    0.0000 C   0  0
    6.4451   -1.8434    0.0000 N   0  0
    5.7171    0.9385    0.0000 C   0  0
    6.1382    2.3782    0.0000 C   0  0
  1  2  1  0
  2  3  1  0
  3  4  2  0
  4  5  1  0
  5  6  2  0
  6  7  1  0
  7  8  1  0
  8  9  1  0
  9 10  2  0
 10 11  1  0
 11 12  1  0
 12 13  1  0
 11 14  2  0
 14 15  1  0
 15 16  2  0
 16  9  1  0
 15 17  1  0
 17 18  1  0
 18 19  1  0
 19 20  1  0
 20 14  1  0
  8 21  2  0
 21 22  1  0
 22 23  1  0
 23  7  2  0
 23 24  1  0
  6 25  1  0
 25 26  2  0
 26  3  1  0
M  END
> <Smiles>
COc1ccc(-c2c(-c3cc(OC)c4c(c3)OCCO4)noc2N)cc1

> <ID>
CHEMBL3113121

> <standard_value>
30

> <IC50_uM>
0.03

> <Activity>
Yes

> <pIC50>
7.522878745

> <BCI>
1

$$$$

  SciTegic03012415362D

117120  0  0  1  0            999 V2000
    3.0021   12.0680    0.0000 C   0  0
    2.4917   10.6575    0.0000 C   0  0
    1.0150   10.3947    0.0000 C   0  0
    3.4579    9.5090    0.0000 C   0  0
    2.9432    8.0863    0.0000 C   0  0  1  0  0  0
    1.4942    8.4746    0.0000 O   0  0
    0.0000    8.6053    0.0000 C   0  0
   -0.0001   10.1053    0.0000 O   0  0
   -1.4943    8.4746    0.0000 C   0  0  2  0  0  0
   -1.7599    9.9640    0.0000 C   0  0
   -3.1702   10.4752    0.0000 C   0  0
   -0.6124   10.9301    0.0000 C   0  0
   -2.9432    8.0863    0.0000 N   0  0
   -4.3027    7.4524    0.0000 C   0  0
   -5.0527    8.7514    0.0000 O   0  0
   -5.5314    6.5920    0.0000 C   0  0  2  0  0  0
   -6.4956    7.7411    0.0000 C   0  0
   -6.5921    5.5313    0.0000 O   0  0
   -7.4524    4.3026    0.0000 C   0  0
   -8.7515    5.0526    0.0000 O   0  0
   -8.0863    2.9431    0.0000 C   0  0  1  0  0  0
   -9.5091    3.4579    0.0000 C   0  0
  -10.6569    2.4922    0.0000 C   0  0
   -9.7720    4.9347    0.0000 C   0  0
   -8.4746    1.4943    0.0000 N   0  0
   -8.6053    0.0000    0.0000 C   0  0
  -10.1053    0.0000    0.0000 O   0  0
   -8.4746   -1.4943    0.0000 C   0  0  1  0  0  0
   -9.9650   -1.7542    0.0000 C   0  0
  -10.9283   -0.6032    0.0000 C   0  0
  -12.4064   -0.8587    0.0000 C   0  0
  -13.3667    0.2936    0.0000 C   0  0
  -12.8490    1.7014    0.0000 C   0  0
  -11.3709    1.9570    0.0000 C   0  0
  -10.4106    0.8047    0.0000 C   0  0
   -8.0863   -2.9432    0.0000 O   0  0
   -7.4524   -4.3027    0.0000 C   0  0
   -8.7514   -5.0527    0.0000 O   0  0
   -6.5920   -5.5314    0.0000 C   0  0  2  0  0  0
   -7.7497   -6.5055    0.0000 C   0  0  1  0  0  0
   -7.4866   -7.9823    0.0000 C   0  0
   -9.1610   -5.9951    0.0000 O   0  0
  -10.3094   -6.9615    0.0000 C   0  0
  -10.0463   -8.4382    0.0000 O   0  0
  -11.7207   -6.4510    0.0000 C   0  0
  -12.8691   -7.4174    0.0000 C   0  0
  -14.2804   -6.9069    0.0000 C   0  0
  -15.4288   -7.8733    0.0000 N   0  0
  -15.1657   -9.3500    0.0000 C   0  0
  -16.8401   -7.3628    0.0000 C   0  0
  -17.1031   -5.8861    0.0000 O   0  0
  -17.9884   -8.3292    0.0000 O   0  0
  -19.3998   -7.8188    0.0000 C   0  0
  -20.5481   -8.7851    0.0000 C   0  0
  -21.9595   -8.2770    0.0000 C   0  0
  -23.1052   -9.2451    0.0000 C   0  0
  -22.8397  -10.7214    0.0000 C   0  0
  -23.9880  -11.6877    0.0000 O   0  0
  -25.3994  -11.1773    0.0000 C   0  0  2  0  0  0
  -25.6599   -9.7000    0.0000 O   0  0
  -27.0695   -9.1870    0.0000 C   0  0  2  0  0  0
  -27.3270   -7.7084    0.0000 C   0  0
  -26.1766   -6.7459    0.0000 O   0  0
  -28.7357   -7.1929    0.0000 O   0  0
  -28.2185  -10.1512    0.0000 C   0  0  1  0  0  0
  -29.6281   -9.6381    0.0000 O   0  0
  -27.9581  -11.6284    0.0000 C   0  0  2  0  0  0
  -29.1072  -12.5925    0.0000 O   0  0
  -26.5485  -12.1414    0.0000 C   0  0  1  0  0  0
  -26.2881  -13.6186    0.0000 O   0  0
  -21.4284  -11.2296    0.0000 C   0  0
  -21.1596  -12.7062    0.0000 N   0  3
  -19.7476  -13.2123    0.0000 O   0  0
  -22.3037  -13.6763    0.0000 O   0  5
  -20.2826  -10.2615    0.0000 C   0  0
   -5.5314   -6.5921    0.0000 N   0  0
   -4.3026   -7.4524    0.0000 C   0  0
   -5.0526   -8.7515    0.0000 O   0  0
   -2.9432   -8.0863    0.0000 C   0  0  2  0  0  0
   -3.4562   -9.4959    0.0000 C   0  0
   -1.4943   -8.4746    0.0000 O   0  0
    0.0000   -8.6053    0.0000 C   0  0
    0.0000  -10.1053    0.0000 O   0  0
    1.4943   -8.4746    0.0000 C   0  0  1  0  0  0
    1.7599   -9.9640    0.0000 C   0  0
    3.1701  -10.4752    0.0000 C   0  0
    0.6124  -10.9301    0.0000 C   0  0
    2.9432   -8.0863    0.0000 N   0  0
    4.3027   -7.4524    0.0000 C   0  0
    5.0527   -8.7514    0.0000 O   0  0
    5.5314   -6.5920    0.0000 C   0  0  1  0  0  0
    6.5017   -7.7529    0.0000 C   0  0
    5.9865   -9.1625    0.0000 C   0  0
    6.9485  -10.3135    0.0000 C   0  0
    4.5089   -9.4206    0.0000 C   0  0
    6.5920   -5.5314    0.0000 O   0  0
    7.4524   -4.3026    0.0000 C   0  0
    8.7514   -5.0526    0.0000 O   0  0
    8.0863   -2.9432    0.0000 C   0  0  2  0  0  0
    9.5091   -3.4579    0.0000 C   0  0
   10.6569   -2.4922    0.0000 C   0  0
    9.7719   -4.9347    0.0000 C   0  0
    8.4746   -1.4943    0.0000 N   0  0
    8.6053    0.0000    0.0000 C   0  0
   10.1053    0.0000    0.0000 O   0  0
    8.4746    1.4943    0.0000 C   0  0  2  0  0  0
    9.9518    1.7548    0.0000 C   0  0
    8.0863    2.9432    0.0000 O   0  0
    7.4524    4.3027    0.0000 C   0  0
    8.7514    5.0527    0.0000 O   0  0
    6.5920    5.5314    0.0000 C   0  0  1  0  0  0
    7.7492    6.5061    0.0000 C   0  0
    7.4868    7.9830    0.0000 C   0  0
    9.1595    5.9954    0.0000 C   0  0
    5.5314    6.5920    0.0000 N   0  0
    4.3026    7.4524    0.0000 C   0  0
    5.0526    8.7514    0.0000 O   0  0
  1  2  1  0
  2  3  1  0
  2  4  1  0
  5  4  1  6
  5  6  1  0
  6  7  1  0
  7  8  2  0
  7  9  1  0
  9 10  1  1
 10 11  1  0
 10 12  1  0
  9 13  1  0
 13 14  1  0
 14 15  2  0
 14 16  1  0
 16 17  1  1
 16 18  1  0
 18 19  1  0
 19 20  2  0
 19 21  1  0
 21 22  1  6
 22 23  1  0
 22 24  1  0
 21 25  1  0
 25 26  1  0
 26 27  2  0
 26 28  1  0
 28 29  1  6
 29 30  1  0
 30 31  1  0
 31 32  1  0
 32 33  1  0
 33 34  1  0
 34 35  1  0
 35 30  1  0
 28 36  1  0
 36 37  1  0
 37 38  2  0
 37 39  1  0
 39 40  1  0
 40 41  1  1
 40 42  1  0
 42 43  1  0
 43 44  2  0
 43 45  1  0
 45 46  1  0
 46 47  1  0
 47 48  1  0
 48 49  1  0
 48 50  1  0
 50 51  2  0
 50 52  1  0
 52 53  1  0
 53 54  1  0
 54 55  2  0
 55 56  1  0
 56 57  2  0
 57 58  1  0
 59 58  1  1
 59 60  1  0
 60 61  1  0
 61 62  1  1
 62 63  2  0
 62 64  1  0
 61 65  1  0
 65 66  1  6
 65 67  1  0
 67 68  1  1
 67 69  1  0
 69 59  1  0
 69 70  1  6
 57 71  1  0
 71 72  1  0
 72 73  2  0
 72 74  1  0
 71 75  2  0
 75 54  1  0
 39 76  1  1
 76 77  1  0
 77 78  2  0
 77 79  1  0
 79 80  1  1
 79 81  1  0
 81 82  1  0
 82 83  2  0
 82 84  1  0
 84 85  1  6
 85 86  1  0
 85 87  1  0
 84 88  1  0
 88 89  1  0
 89 90  2  0
 89 91  1  0
 91 92  1  6
 92 93  1  0
 93 94  1  0
 93 95  1  0
 91 96  1  0
 96 97  1  0
 97 98  2  0
 97 99  1  0
 99100  1  1
100101  1  0
100102  1  0
 99103  1  0
103104  1  0
104105  2  0
104106  1  0
106107  1  1
106108  1  0
108109  1  0
109110  2  0
109111  1  0
111112  1  6
112113  1  0
112114  1  0
111115  1  0
115116  1  0
116  5  1  0
116117  2  0
M  CHG  2  72   1  74  -1
M  END
> <Smiles>
CC(C)C[C@H]1OC(=O)[C@H](C(C)C)NC(=O)[C@H](C)OC(=O)[C@@H](C(C)C)NC(=O)[C@@H](CC2CCCCC2)OC(=O)[C@H]([C@@H](C)OC(=O)CCCN(C)C(=O)OCc2ccc(O[C@@H]3O[C@H](C(=O)O)[C@@H](O)[C@H](O)[C@H]3O)c([N+](=O)[O-])c2)NC
(=O)[C@H](C)OC(=O)[C@@H](C(C)C)NC(=O)[C@@H](CC(C)C)OC(=O)[C@H](C(C)C)NC(=O)[C@H](C)OC(=O)[C@@H](C(C)C)NC1=O

> <ID>
CHEMBL3577207

> <standard_value>
30

> <IC50_uM>
0.03

> <Activity>
Yes

> <pIC50>
7.522878745

> <BCI>
1

$$$$

  SciTegic03012415362D

 76 81  0  0  1  0            999 V2000
   -2.1356   -6.8215    0.0000 C   0  0
   -1.1636   -5.6790    0.0000 C   0  0
   -1.6665   -4.2649    0.0000 C   0  0  1  0  0  0
   -3.1451   -4.5174    0.0000 C   0  0
   -4.1030   -3.3632    0.0000 N   0  0  3  0  0  0
   -5.5816   -3.6157    0.0000 C   0  0
   -6.5396   -2.4615    0.0000 C   0  0
   -6.0190   -1.0547    0.0000 C   0  0
   -6.9770    0.0995    0.0000 C   0  0
   -6.4564    1.5063    0.0000 C   0  0
   -7.4173    2.6592    0.0000 O   0  0
   -8.8955    2.4046    0.0000 C   0  0
   -4.9778    1.7588    0.0000 C   0  0
   -4.4540    3.1653    0.0000 O   0  0
   -2.9751    3.4157    0.0000 C   0  0
   -4.0198    0.6045    0.0000 C   0  0
   -4.5404   -0.8022    0.0000 C   0  0
   -3.5824   -1.9564    0.0000 C   0  0  2  0  0  0
   -2.1038   -1.7039    0.0000 C   0  0
   -1.1459   -2.8582    0.0000 C   0  0  2  0  0  0
    0.3330   -2.6024    0.0000 C   0  0
    1.2947   -3.7547    0.0000 C   0  0  2  0  0  0
    1.2938   -5.2548    0.0000 C   0  0
   -0.0058   -6.0039    0.0000 C   0  0
   -0.0067   -7.5039    0.0000 C   0  0
   -1.3085   -8.2508    0.0000 O   0  0
   -2.6060   -7.4981    0.0000 C   0  0
    1.2918   -8.2548    0.0000 C   0  0
    1.2939   -9.7556    0.0000 O   0  0
    2.5935  -10.5046    0.0000 C   0  0
    2.5913   -7.5056    0.0000 C   0  0
    2.5923   -6.0056    0.0000 C   0  0
    3.8918   -5.2565    0.0000 C   0  0
    3.8928   -3.7565    0.0000 C   0  0
    2.5943   -3.0056    0.0000 N   0  0
    2.5984   -1.5048    0.0000 C   0  0
    1.3012   -0.7516    0.0000 O   0  0
    3.8997   -0.7571    0.0000 C   0  0  2  0  0  0
    5.1969   -1.5103    0.0000 C   0  0
    3.9039    0.7437    0.0000 C   0  0  1  0  0  0
    2.6044    1.4946    0.0000 O   0  0
    1.3046    0.7459    0.0000 C   0  0
    5.2052    1.4914    0.0000 C   0  0  2  0  0  0
    6.5540    0.8647    0.0000 C   0  0
    7.5623    1.9752    0.0000 C   0  0
    6.8177    3.2774    0.0000 C   0  0
    5.3492    2.9716    0.0000 N   0  0
    4.2344    3.9725    0.0000 C   0  0
    2.8087    3.5064    0.0000 O   0  0
    4.5434    5.4412    0.0000 C   0  0
    3.4266    6.4438    0.0000 C   0  0  1  0  0  0
    2.0010    5.9745    0.0000 O   0  0
    1.6938    4.5063    0.0000 C   0  0
    3.7355    7.9125    0.0000 C   0  0  2  0  0  0
    5.1611    8.3818    0.0000 C   0  0  1  0  0  0
    6.2793    7.3820    0.0000 C   0  0
    5.4684    9.8508    0.0000 C   0  0
    6.8932   10.3198    0.0000 C   0  0
    2.6187    8.9151    0.0000 N   0  0
    1.1929    8.4490    0.0000 C   0  0
    2.9276   10.3838    0.0000 C   0  0
    4.3534   10.8498    0.0000 O   0  0
    1.8108   11.3864    0.0000 C   0  0  1  0  0  0
    2.1198   12.8550    0.0000 N   0  0
    1.0030   13.8576    0.0000 C   0  0
   -0.4228   13.3916    0.0000 O   0  0
    1.3119   15.3263    0.0000 C   0  0  2  0  0  0
    0.1951   16.3289    0.0000 C   0  0
    0.5039   17.7968    0.0000 C   0  0
   -1.2307   15.8629    0.0000 C   0  0
    2.7375   15.7956    0.0000 N   0  0
    3.0446   17.2638    0.0000 C   0  0
    3.8557   14.7959    0.0000 C   0  0
    0.3833   10.9230    0.0000 C   0  0
   -0.7318   11.9262    0.0000 C   0  0
    0.0715    9.4557    0.0000 C   0  0
  1  2  1  0
  3  2  1  1
  3  4  1  0
  5  4  1  4
  5  6  1  0
  6  7  1  0
  7  8  1  0
  8  9  2  0
  9 10  1  0
 10 11  1  0
 11 12  1  0
 10 13  2  0
 13 14  1  0
 14 15  1  0
 13 16  1  0
 16 17  2  0
 17  8  1  0
 17 18  1  0
 18  5  1  0
 18 19  1  6
 19 20  1  0
 20  3  1  0
 20 21  1  6
 22 21  1  1
 22 23  1  0
 23 24  2  0
 24 25  1  0
 25 26  1  0
 26 27  1  0
 25 28  2  0
 28 29  1  0
 29 30  1  0
 28 31  1  0
 31 32  2  0
 32 23  1  0
 32 33  1  0
 33 34  1  0
 34 35  1  0
 35 22  1  0
 35 36  1  0
 36 37  2  0
 36 38  1  0
 38 39  1  1
 38 40  1  0
 40 41  1  1
 41 42  1  0
 40 43  1  0
 43 44  1  1
 44 45  1  0
 45 46  1  0
 46 47  1  0
 47 43  1  0
 47 48  1  0
 48 49  2  0
 48 50  1  0
 51 50  1  1
 51 52  1  0
 52 53  1  0
 51 54  1  0
 54 55  1  0
 55 56  1  6
 55 57  1  0
 57 58  1  0
 54 59  1  1
 59 60  1  0
 59 61  1  0
 61 62  2  0
 61 63  1  0
 63 64  1  6
 64 65  1  0
 65 66  2  0
 67 65  1  6
 67 68  1  0
 68 69  1  0
 68 70  1  0
 67 71  1  0
 71 72  1  0
 71 73  1  0
 63 74  1  0
 74 75  1  0
 74 76  1  0
M  END
> <Smiles>
CC[C@H]1CN2CCc3cc(OC)c(OC)cc3[C@@H]2C[C@@H]1C[C@@H]1c2cc(OC)c(OC)cc2CCN1C(=O)[C@H](C)[C@@H](OC)[C@@H]1CCCN1C(=O)C[C@@H](OC)[C@H]([C@@H](C)CC)N(C)C(=O)[C@@H](NC(=O)[C@H](C(C)C)N(C)C)C(C)C

> <ID>
CHEMBL4637412

> <standard_value>
30.17

> <IC50_uM>
0.03017

> <Activity>
Yes

> <pIC50>
7.52042469

> <BCI>
1

$$$$

  SciTegic03012415362D

 20 23  0  0  0  0            999 V2000
    2.5981   -1.5000    0.0000 O   0  0
    1.2990   -0.7500    0.0000 C   0  0
    1.2990    0.7500    0.0000 C   0  0
    0.0000    1.5000    0.0000 C   0  0
    0.0000    3.0008    0.0000 C   0  0
    1.2978    3.7529    0.0000 C   0  0
    1.2954    5.2529    0.0000 C   0  0
   -0.0048    6.0009    0.0000 C   0  0
   -1.3026    5.2488    0.0000 C   0  0
   -1.3002    3.7488    0.0000 C   0  0
   -1.2990    0.7500    0.0000 N   0  0
   -1.2990   -0.7500    0.0000 C   0  0
   -2.5981   -1.5000    0.0000 C   0  0
   -2.5981   -3.0000    0.0000 C   0  0
   -1.2990   -3.7500    0.0000 C   0  0
    0.0000   -3.0000    0.0000 C   0  0
    0.0000   -1.5000    0.0000 C   0  0
   -1.6105   -5.2165    0.0000 O   0  0
   -3.1022   -5.3733    0.0000 C   0  0
   -3.7124   -4.0030    0.0000 O   0  0
  1  2  1  0
  2  3  2  0
  3  4  1  0
  4  5  1  0
  5  6  2  0
  6  7  1  0
  7  8  2  0
  8  9  1  0
  9 10  2  0
 10  5  1  0
  4 11  2  0
 11 12  1  0
 12 13  2  0
 13 14  1  0
 14 15  2  0
 15 16  1  0
 16 17  2  0
 17  2  1  0
 17 12  1  0
 15 18  1  0
 18 19  1  0
 19 20  1  0
 20 14  1  0
M  END
> <Smiles>
Oc1cc(-c2ccccc2)nc2cc3c(cc12)OCO3

> <ID>
CHEMBL418350

> <standard_value>
30.2

> <IC50_uM>
0.0302

> <Activity>
Yes

> <pIC50>
7.519993057

> <BCI>
1

$$$$

  SciTegic03012415362D

 21 23  0  0  0  0            999 V2000
    7.7802    3.0211    0.0000 C   0  0
    7.7876    1.5211    0.0000 O   0  0
    6.4920    0.7636    0.0000 C   0  0
    6.4972   -0.7364    0.0000 C   0  0
    5.2007   -1.4909    0.0000 C   0  0
    3.8990   -0.7455    0.0000 C   0  0
    2.6003   -1.4977    0.0000 N   0  0
    2.6030   -2.9977    0.0000 C   0  0
    1.2990   -0.7500    0.0000 C   0  0
    1.2990    0.7500    0.0000 N   0  0
    0.0000    1.5000    0.0000 C   0  0
    0.0000    3.0000    0.0000 C   0  0
   -1.2990    0.7500    0.0000 N   0  0
   -1.2990   -0.7500    0.0000 C   0  0
   -2.4133   -1.7530    0.0000 O   0  0
   -1.8032   -3.1233    0.0000 C   0  0
   -2.5532   -4.4223    0.0000 C   0  0
   -0.3114   -2.9665    0.0000 C   0  0
    0.0000   -1.5000    0.0000 C   0  0
    3.8939    0.7546    0.0000 C   0  0
    5.1903    1.5091    0.0000 C   0  0
  1  2  1  0
  2  3  1  0
  3  4  2  0
  4  5  1  0
  5  6  2  0
  6  7  1  0
  7  8  1  0
  7  9  1  0
  9 10  2  0
 10 11  1  0
 11 12  1  0
 11 13  2  0
 13 14  1  0
 14 15  1  0
 15 16  1  0
 16 17  1  0
 16 18  2  0
 18 19  1  0
 19  9  1  0
 19 14  2  0
  6 20  1  0
 20 21  2  0
 21  3  1  0
M  END
> <Smiles>
COc1ccc(N(C)c2nc(C)nc3oc(C)cc23)cc1

> <ID>
CHEMBL3297898

> <standard_value>
33.6

> <IC50_uM>
0.0336

> <Activity>
Yes

> <pIC50>
7.473660723

> <BCI>
1

$$$$

  SciTegic03012415362D

 27 29  0  0  0  0            999 V2000
    9.6933   -4.1283    0.0000 C   0  0
    8.8153   -2.9121    0.0000 C   0  0
    7.3222   -3.0635    0.0000 N   0  0
    6.4437   -1.8466    0.0000 C   0  0
    7.0583   -0.4784    0.0000 O   0  0
    4.9531   -1.9978    0.0000 C   0  0
    4.2010   -3.2956    0.0000 N   0  0
    2.7343   -2.9815    0.0000 O   0  0
    2.5987   -1.5004    0.0000 C   0  0
    1.2990   -0.7500    0.0000 C   0  0
    1.2990    0.7500    0.0000 C   0  0
    0.0000    1.5000    0.0000 C   0  0
    0.0000    3.0000    0.0000 Cl  0  0
   -1.2990    0.7500    0.0000 C   0  0
   -2.5981    1.5000    0.0000 O   0  0
   -1.2990   -0.7500    0.0000 C   0  0
    0.0000   -1.5000    0.0000 C   0  0
    0.0000   -3.0000    0.0000 O   0  0
    3.9511   -0.8815    0.0000 C   0  0
    4.2567    0.5878    0.0000 C   0  0
    3.2235    1.6679    0.0000 C   0  0
    3.6446    3.1076    0.0000 C   0  0
    5.1019    3.4627    0.0000 C   0  0
    5.5263    4.9023    0.0000 O   0  0
    6.9841    5.2554    0.0000 C   0  0
    6.1382    2.3782    0.0000 C   0  0
    5.7171    0.9385    0.0000 C   0  0
  1  2  1  0
  2  3  1  0
  3  4  1  0
  4  5  2  0
  4  6  1  0
  6  7  2  0
  7  8  1  0
  8  9  1  0
  9 10  1  0
 10 11  2  0
 11 12  1  0
 12 13  1  0
 12 14  2  0
 14 15  1  0
 14 16  1  0
 16 17  2  0
 17 10  1  0
 17 18  1  0
  9 19  2  0
 19  6  1  0
 19 20  1  0
 20 21  2  0
 21 22  1  0
 22 23  2  0
 23 24  1  0
 24 25  1  0
 23 26  1  0
 26 27  2  0
 27 20  1  0
M  END
> <Smiles>
CCNC(=O)c1noc(-c2cc(Cl)c(O)cc2O)c1-c1ccc(OC)cc1

> <ID>
CHEMBL252124

> <standard_value>
34

> <IC50_uM>
0.034

> <Activity>
Yes

> <pIC50>
7.468521083

> <BCI>
1

$$$$

  SciTegic03012415362D

 68 79  0  0  1  0            999 V2000
    9.4178    6.1547    0.0000 C   0  0
    9.9700    4.7600    0.0000 C   0  0  2  0  0  0
   11.5500    4.3800    0.0000 C   0  0  2  0  0  0
   11.5500    2.7600    0.0000 O   0  0
   10.0500    2.2500    0.0000 C   0  0  1  0  0  0
    9.1300    1.0300    0.0000 C   0  0
    7.7800    1.5000    0.0000 C   0  0
    6.3800    0.8200    0.0000 C   0  0  2  0  0  0
    6.3800   -0.6100    0.0000 C   0  0
    5.0500   -1.3800    0.0000 C   0  0
    3.7200   -0.6600    0.0000 C   0  0  1  0  0  0
    2.3700   -1.3800    0.0000 C   0  0
    1.0000   -0.6600    0.0000 C   0  0
   -0.3300   -1.3800    0.0000 N   0  0
   -1.6900   -0.6600    0.0000 C   0  0
   -1.6900    0.8800    0.0000 C   0  0
   -0.3300    1.6000    0.0000 N   0  0
    1.0000    0.8800    0.0000 C   0  0
    2.3700    1.6000    0.0000 C   0  0
    3.7200    0.8800    0.0000 C   0  0  1  0  0  0
    3.6872    2.3796    0.0000 C   0  0
    5.0400    1.6600    0.0000 C   0  0  1  0  0  0
    5.0400    3.0600    0.0000 C   0  0
    6.4400    3.7800    0.0000 C   0  0  1  0  0  0
    6.4664    5.2798    0.0000 O   0  0
    7.7800    3.0300    0.0000 C   0  0  1  0  0  0
    7.8741    4.0256    0.0000 C   0  0
    9.1300    3.4800    0.0000 C   0  0  1  0  0  0
    8.5201    4.2725    0.0000 O   0  0
   -2.9400    1.6000    0.0000 C   0  0
   -4.2800    0.8800    0.0000 C   0  0  2  0  0  0
   -5.6600    1.6000    0.0000 C   0  0
   -7.0100    0.8800    0.0000 C   0  0
   -7.0100   -0.6600    0.0000 C   0  0  1  0  0  0
   -8.3500   -1.3800    0.0000 C   0  0
   -9.8500   -0.9700    0.0000 C   0  0
  -10.7400   -2.1600    0.0000 C   0  0
   -9.8500   -3.4800    0.0000 C   0  0  2  0  0  0
  -10.7100   -4.6300    0.0000 C   0  0  2  0  0  0
  -12.2100   -4.6263    0.0000 C   0  0
   -9.7700   -5.9000    0.0000 C   0  0  1  0  0  0
  -11.2694   -5.9410    0.0000 O   0  0
   -8.9242   -7.1102    0.0000 C   0  0  2  0  0  0
   -7.4343   -6.9366    0.0000 O   0  0
   -9.5187   -8.4883    0.0000 C   0  0
   -8.6232   -9.6927    0.0000 C   0  0
   -7.1333   -9.5190    0.0000 C   0  0
   -7.7277  -10.8960    0.0000 C   0  0
   -9.2173  -11.0700    0.0000 O   0  0
   -8.2700   -5.9000    0.0000 O   0  0
   -7.4000   -4.4700    0.0000 C   0  0
   -8.3500   -2.9700    0.0000 C   0  0  2  0  0  0
   -7.0100   -3.7500    0.0000 C   0  0
   -7.0124   -5.2500    0.0000 O   0  0
   -5.6600   -2.9700    0.0000 C   0  0
   -5.6600   -1.3800    0.0000 C   0  0  1  0  0  0
   -4.8048   -1.8984    0.0000 O   0  0
   -4.2800   -0.6600    0.0000 C   0  0  2  0  0  0
   -4.2861   -1.6600    0.0000 C   0  0
   -2.9400   -1.3800    0.0000 C   0  0
   11.0800    5.7200    0.0000 O   0  0
   12.3600    6.6800    0.0000 C   0  0  2  0  0  0
   13.6776    7.3968    0.0000 C   0  0
   11.0686    7.4216    0.0000 C   0  0
    9.7606    6.6873    0.0000 O   0  0
   13.5800    5.7200    0.0000 C   0  0
   13.0800    4.3800    0.0000 C   0  0  1  0  0  0
   13.9354    3.1478    0.0000 O   0  0
  2  1  1  6
  2  3  1  0
  3  4  1  1
  5  4  1  1
  5  6  1  0
  6  7  2  0
  7  8  1  0
  8  9  1  6
  9 10  1  0
 11 10  1  1
 11 12  1  0
 12 13  1  0
 13 14  2  0
 14 15  1  0
 15 16  2  0
 16 17  1  0
 17 18  2  0
 18 13  1  0
 18 19  1  0
 19 20  1  0
 20 11  1  0
 20 21  1  1
 20 22  1  0
 22  8  1  0
 22 23  1  1
 23 24  1  0
 24 25  1  1
 24 26  1  0
 26  7  1  0
 26 27  1  1
 26 28  1  0
 28  5  1  0
 28  2  1  0
 28 29  1  6
 16 30  1  0
 31 30  1  1
 31 32  1  0
 32 33  1  0
 34 33  1  6
 34 35  1  0
 35 36  2  0
 36 37  1  0
 38 37  1  1
 38 39  1  0
 39 40  1  1
 39 41  1  0
 41 42  1  1
 41 43  1  0
 43 44  1  6
 43 45  1  0
 45 46  1  0
 46 47  1  0
 46 48  1  0
 46 49  1  0
 41 50  1  0
 50 51  1  0
 52 51  1  1
 52 35  1  0
 52 38  1  0
 52 53  1  0
 53 54  2  0
 53 55  1  0
 55 56  1  0
 56 34  1  0
 56 57  1  6
 56 58  1  0
 58 31  1  0
 58 59  1  1
 58 60  1  0
 60 15  1  0
  3 61  1  0
 61 62  1  0
 62 63  1  1
 62 64  1  0
 64 65  1  0
 62 66  1  0
 66 67  1  0
 67  3  1  0
 67 68  1  1
M  END
> <Smiles>
C[C@@H]1[C@]2(O[C@H]3C=C4[C@@H]5CC[C@H]6Cc7nc8c(nc7C[C@]6(C)[C@H]5C[C@@H](O)[C@]4(C)[C@]31O)C[C@@H]1CC[C@H]3C4=CC[C@@H]5[C@H](C)[C@@](O)([C@H](O)CC(C)(C)O)OC[C@]45C(=O)C[C@]3(O)[C@@]1(C)C8)O[C@](C)(CO
)C[C@H]2O

> <ID>
CHEMBL3586284

> <standard_value>
36

> <IC50_uM>
0.036

> <Activity>
Yes

> <pIC50>
7.443697499

> <BCI>
1

$$$$

  SciTegic03012415362D

 23 26  0  0  0  0            999 V2000
    2.5981   -1.5000    0.0000 O   0  0
    1.2990   -0.7500    0.0000 C   0  0
    1.2990    0.7500    0.0000 C   0  0
    0.0000    1.5000    0.0000 C   0  0
    0.0000    3.0008    0.0000 C   0  0
   -1.3002    3.7488    0.0000 C   0  0
   -1.3026    5.2488    0.0000 C   0  0
   -0.0048    6.0009    0.0000 C   0  0
    1.2954    5.2529    0.0000 C   0  0
    1.2978    3.7529    0.0000 C   0  0
    2.5981    3.0050    0.0000 F   0  0
   -1.2990    0.7500    0.0000 N   0  0
   -1.2990   -0.7500    0.0000 C   0  0
   -2.5981   -1.5000    0.0000 C   0  0
   -2.5981   -3.0000    0.0000 C   0  0
   -1.2990   -3.7500    0.0000 C   0  0
   -1.2990   -5.2508    0.0000 N   0  0
   -2.5112   -6.1125    0.0000 C   0  0
   -2.0454   -7.5384    0.0000 C   0  0
   -0.5454   -7.5360    0.0000 C   0  0
   -0.0841   -6.1087    0.0000 C   0  0
    0.0000   -3.0000    0.0000 C   0  0
    0.0000   -1.5000    0.0000 C   0  0
  1  2  2  0
  2  3  1  0
  3  4  2  0
  4  5  1  0
  5  6  2  0
  6  7  1  0
  7  8  2  0
  8  9  1  0
  9 10  2  0
 10  5  1  0
 10 11  1  0
  4 12  1  0
 12 13  1  0
 13 14  2  0
 14 15  1  0
 15 16  2  0
 16 17  1  0
 17 18  1  0
 18 19  1  0
 19 20  1  0
 20 21  1  0
 21 17  1  0
 16 22  1  0
 22 23  2  0
 23  2  1  0
 23 13  1  0
M  END
> <Smiles>
O=c1cc(-c2ccccc2F)[nH]c2ccc(N3CCCC3)cc12

> <ID>
CHEMBL51409

> <standard_value>
38.9

> <IC50_uM>
0.0389

> <Activity>
Yes

> <pIC50>
7.410050399

> <BCI>
1

$$$$

  SciTegic03012415362D

 35 39  0  0  1  0            999 V2000
    3.8983   -0.7459    0.0000 C   0  0
    2.6003   -1.4977    0.0000 C   0  0
    1.2990   -0.7500    0.0000 C   0  0  1  0  0  0
    1.2990    0.7500    0.0000 C   0  0
    0.0000    1.5000    0.0000 N   0  0  3  0  0  0
    0.0000    3.0000    0.0000 C   0  0
   -1.2991    3.7500    0.0000 C   0  0
   -2.5981    3.0000    0.0000 C   0  0
   -3.8971    3.7500    0.0000 C   0  0
   -5.1962    3.0000    0.0000 C   0  0
   -6.4944    3.7530    0.0000 O   0  0
   -6.4923    5.2530    0.0000 C   0  0
   -5.1962    1.5000    0.0000 C   0  0
   -6.4944    0.7469    0.0000 O   0  0
   -6.4922   -0.7531    0.0000 C   0  0
   -3.8971    0.7500    0.0000 C   0  0
   -2.5981    1.5000    0.0000 C   0  0
   -1.2990    0.7500    0.0000 C   0  0  2  0  0  0
   -1.2990   -0.7500    0.0000 C   0  0
    0.0000   -1.5000    0.0000 C   0  0  2  0  0  0
   -0.0031   -3.0008    0.0000 C   0  0
   -1.3039   -3.7494    0.0000 C   0  0  1  0  0  0
   -2.6004   -2.9949    0.0000 N   0  0
   -3.9021   -3.7405    0.0000 C   0  0
   -3.9072   -5.2404    0.0000 C   0  0
   -2.6108   -5.9949    0.0000 C   0  0
   -2.6160   -7.4949    0.0000 C   0  0
   -1.3195   -8.2494    0.0000 C   0  0
   -1.3278   -9.7502    0.0000 O   0  0
   -2.6305  -10.4939    0.0000 C   0  0
   -0.0179   -7.5039    0.0000 C   0  0
    1.2808   -8.2561    0.0000 O   0  0
    2.5814   -7.5087    0.0000 C   0  0
   -0.0127   -6.0039    0.0000 C   0  0
   -1.3092   -5.2494    0.0000 C   0  0
  1  2  1  0
  3  2  1  6
  3  4  1  0
  5  4  1  4
  5  6  1  0
  6  7  1  0
  7  8  1  0
  8  9  2  0
  9 10  1  0
 10 11  1  0
 11 12  1  0
 10 13  2  0
 13 14  1  0
 14 15  1  0
 13 16  1  0
 16 17  2  0
 17  8  1  0
 17 18  1  0
 18  5  1  0
 18 19  1  1
 19 20  1  0
 20  3  1  0
 20 21  1  1
 22 21  1  6
 22 23  1  0
 23 24  1  0
 24 25  1  0
 25 26  1  0
 26 27  2  0
 27 28  1  0
 28 29  1  0
 29 30  1  0
 28 31  2  0
 31 32  1  0
 32 33  1  0
 31 34  1  0
 34 35  2  0
 35 26  1  0
 35 22  1  0
M  END
> <Smiles>
CC[C@H]1CN2CCc3cc(OC)c(OC)cc3[C@@H]2C[C@@H]1C[C@H]1NCCc2cc(OC)c(OC)cc21.Cl.Cl

> <ID>
CHEMBL493439

> <standard_value>
39.7

> <IC50_uM>
0.0397

> <Activity>
Yes

> <pIC50>
7.401209493

> <BCI>
1

> <RemovedSalts>
HCl
HCl

$$$$

  SciTegic03012415362D

 52 54  0  0  1  0            999 V2000
   13.6667   -3.0232    0.0000 C   0  0
   12.5440   -2.0285    0.0000 C   0  0
   11.1201   -2.5028    0.0000 C   0  0  2  0  0  0
   10.8195   -3.9724    0.0000 C   0  0
    9.9967   -1.5075    0.0000 C   0  0  1  0  0  0
    8.5723   -1.9802    0.0000 C   0  0  1  0  0  0
    8.2685   -3.4500    0.0000 C   0  0
    6.8441   -3.9227    0.0000 C   0  0
    5.7234   -2.9256    0.0000 O   0  0
    6.5408   -5.3899    0.0000 N   0  0
    7.5445   -6.5046    0.0000 C   0  0
    6.7945   -7.8036    0.0000 C   0  0
    5.3273   -7.4917    0.0000 C   0  0
    5.1894   -6.0109    0.0000 C   0  0  1  0  0  0
    3.8912   -5.2578    0.0000 C   0  0  2  0  0  0
    2.5917   -6.0086    0.0000 O   0  0
    2.5912   -7.5086    0.0000 C   0  0
    3.8933   -3.7570    0.0000 C   0  0  1  0  0  0
    5.1937   -3.0093    0.0000 C   0  0
    2.5951   -3.0039    0.0000 C   0  0
    1.2948   -3.7516    0.0000 O   0  0
    2.5973   -1.5031    0.0000 N   0  0
    1.2990   -0.7500    0.0000 C   0  0
    1.2990    0.7500    0.0000 C   0  0
    0.0000    1.5000    0.0000 C   0  0
   -1.2990    0.7500    0.0000 C   0  0
   -2.5981    1.5000    0.0000 C   0  0
   -3.8971    0.7500    0.0000 C   0  0
   -3.8971   -0.7500    0.0000 C   0  0
   -2.5981   -1.5000    0.0000 C   0  0
   -1.2990   -0.7500    0.0000 C   0  0
    0.0000   -1.5000    0.0000 N   0  0
    7.4531   -0.9803    0.0000 O   0  0
    7.7583    0.4883    0.0000 C   0  0
   10.3005   -0.0377    0.0000 N   0  0
    9.1798    0.9593    0.0000 C   0  0
   11.7249    0.4350    0.0000 C   0  0
   12.8456   -0.5620    0.0000 O   0  0
   12.0287    1.9048    0.0000 C   0  0  1  0  0  0
   13.4531    2.3775    0.0000 N   0  0
   13.7569    3.8472    0.0000 C   0  0
   12.6362    4.8443    0.0000 O   0  0
   15.1813    4.3200    0.0000 C   0  0  2  0  0  0
   15.4851    5.7897    0.0000 C   0  0
   16.9087    6.2622    0.0000 C   0  0
   14.3644    6.7868    0.0000 C   0  0
   16.3047    3.3247    0.0000 N   0  0
   17.7278    3.7987    0.0000 C   0  0
   16.0041    1.8551    0.0000 C   0  0
   10.9094    2.9047    0.0000 C   0  0
   11.2147    4.3733    0.0000 C   0  0
    9.4848    2.4351    0.0000 C   0  0
  1  2  1  0
  2  3  1  0
  3  4  1  6
  3  5  1  0
  5  6  1  0
  6  7  1  1
  7  8  1  0
  8  9  2  0
  8 10  1  0
 10 11  1  0
 11 12  1  0
 12 13  1  0
 14 13  1  1
 14 10  1  0
 14 15  1  0
 15 16  1  6
 16 17  1  0
 15 18  1  0
 18 19  1  6
 18 20  1  0
 20 21  2  0
 20 22  1  0
 22 23  1  0
 23 24  2  0
 24 25  1  0
 25 26  2  0
 26 27  1  0
 27 28  2  0
 28 29  1  0
 29 30  2  0
 30 31  1  0
 31 26  1  0
 31 32  2  0
 32 23  1  0
  6 33  1  0
 33 34  1  0
  5 35  1  1
 35 36  1  0
 35 37  1  0
 37 38  2  0
 37 39  1  0
 39 40  1  6
 40 41  1  0
 41 42  2  0
 43 41  1  6
 43 44  1  0
 44 45  1  0
 44 46  1  0
 43 47  1  0
 47 48  1  0
 47 49  1  0
 39 50  1  0
 50 51  1  0
 50 52  1  0
M  END
> <Smiles>
CC[C@H](C)[C@@H]([C@@H](CC(=O)N1CCC[C@H]1[C@H](OC)[C@@H](C)C(=O)Nc1ccc2ccccc2n1)OC)N(C)C(=O)[C@@H](NC(=O)[C@H](C(C)C)N(C)C)C(C)C

> <ID>
CHEMBL1784334

> <standard_value>
40.1

> <IC50_uM>
0.0401

> <Activity>
Yes

> <pIC50>
7.396855627

> <BCI>
1

$$$$

  SciTegic03012415362D

 22 24  0  0  0  0            999 V2000
    2.5875   -5.9994    0.0000 C   0  0
    3.8888   -5.2533    0.0000 O   0  0
    3.8943   -3.7525    0.0000 C   0  0
    5.1945   -3.0045    0.0000 C   0  0
    5.1969   -1.5045    0.0000 C   0  0
    3.8991   -0.7525    0.0000 C   0  0
    2.5987   -1.5004    0.0000 C   0  0
    1.2990   -0.7500    0.0000 C   0  0
    1.2990    0.7500    0.0000 C   0  0
    0.0000    1.5000    0.0000 C   0  0
    0.0000    3.0000    0.0000 O   0  0
   -1.2990    0.7500    0.0000 C   0  0
   -2.5981    1.5000    0.0000 C   0  0
   -3.8971    0.7500    0.0000 C   0  0
   -5.1984    1.4977    0.0000 N   0  0
   -6.4964    0.7459    0.0000 C   0  0
   -5.2011    2.9977    0.0000 C   0  0
   -3.8971   -0.7500    0.0000 C   0  0
   -2.5981   -1.5000    0.0000 C   0  0
   -1.2990   -0.7500    0.0000 C   0  0
    0.0000   -1.5000    0.0000 N   0  0
    2.5965   -3.0004    0.0000 C   0  0
  1  2  1  0
  2  3  1  0
  3  4  2  0
  4  5  1  0
  5  6  2  0
  6  7  1  0
  7  8  1  0
  8  9  2  0
  9 10  1  0
 10 11  1  0
 10 12  2  0
 12 13  1  0
 13 14  2  0
 14 15  1  0
 15 16  1  0
 15 17  1  0
 14 18  1  0
 18 19  2  0
 19 20  1  0
 20 12  1  0
 20 21  2  0
 21  8  1  0
  7 22  2  0
 22  3  1  0
M  END
> <Smiles>
COc1cccc(-c2cc(O)c3cc(N(C)C)ccc3n2)c1

> <ID>
CHEMBL301589

> <standard_value>
43.65

> <IC50_uM>
0.04365

> <Activity>
Yes

> <pIC50>
7.360015752

> <BCI>
1

$$$$

  SciTegic03012415362D

 35 42  0  0  1  0            999 V2000
   -1.7668    6.0997    0.0000 C   0  0
   -2.5381    4.8132    0.0000 N   0  0
   -1.8100    3.5000    0.0000 C   0  0  2  0  0  0
   -0.2400    3.5200    0.0000 C   0  0
    0.5000    2.1800    0.0000 C   0  0  1  0  0  0
   -1.0600    2.1800    0.0000 O   0  0
   -1.8300    0.9300    0.0000 C   0  0  1  0  0  0
   -3.1401    0.1996    0.0000 C   0  0
   -2.6500    2.2500    0.0000 C   0  0  2  0  0  0
   -4.1488    2.2849    0.0000 O   0  0
   -4.9300    1.0044    0.0000 C   0  0
   -0.9800   -0.7800    0.0000 N   0  0
   -2.1300   -1.4600    0.0000 C   0  0
   -3.3200   -0.7600    0.0000 C   0  0
   -4.5500   -1.4800    0.0000 C   0  0
   -4.5800   -2.7700    0.0000 C   0  0
   -3.3400   -3.4700    0.0000 C   0  0
   -2.1300   -2.7900    0.0000 C   0  0
    0.2400   -2.7700    0.0000 C   0  0
    1.4300   -3.4700    0.0000 C   0  0
    2.6600   -2.7500    0.0000 C   0  0
    2.6800   -1.4600    0.0000 C   0  0
    3.7900    0.5600    0.0000 C   0  0
    4.9600    1.2800    0.0000 C   0  0
    4.9600    2.6300    0.0000 C   0  0
    3.8100    3.2900    0.0000 C   0  0
    2.6400    2.5900    0.0000 C   0  0
    2.6400    1.2400    0.0000 C   0  0
    1.4900    0.5400    0.0000 N   0  0
    1.4500   -0.7600    0.0000 C   0  0
    0.2400   -1.4400    0.0000 C   0  0
    3.8500   -3.6300    0.0000 C   0  0
    5.2941   -3.2244    0.0000 O   0  0
    3.2600   -5.0800    0.0000 N   0  0
    1.7600   -4.9700    0.0000 C   0  0
  1  2  1  0
  3  2  1  6
  3  4  1  0
  5  4  1  6
  5  6  1  0
  6  7  1  0
  7  8  1  1
  7  9  1  0
  9  3  1  0
  9 10  1  6
 10 11  1  0
  7 12  1  0
 12 13  1  0
 13 14  2  0
 14 15  1  0
 15 16  2  0
 16 17  1  0
 17 18  2  0
 18 13  1  0
 18 19  1  0
 19 20  2  0
 20 21  1  0
 21 22  2  0
 22 23  1  0
 23 24  2  0
 24 25  1  0
 25 26  2  0
 26 27  1  0
 27 28  2  0
 28 23  1  0
 28 29  1  0
 29  5  1  0
 29 30  1  0
 30 22  1  0
 30 31  2  0
 31 19  1  0
 31 12  1  0
 21 32  1  0
 32 33  2  0
 32 34  1  0
 34 35  1  0
 35 20  1  0
M  END
> <Smiles>
CN[C@@H]1C[C@H]2O[C@@](C)([C@@H]1OC)n1c3ccccc3c3c4c(c5c6ccccc6n2c5c31)C(=O)NC4

> <ID>
CHEMBL388978

> <standard_value>
44

> <IC50_uM>
0.044

> <Activity>
Yes

> <pIC50>
7.356547324

> <BCI>
1

$$$$

  SciTegic03012415362D

 23 25  0  0  0  0            999 V2000
    4.0408  -12.2198    0.0000 C   0  0
    4.7927  -10.9219    0.0000 O   0  0
    4.0450   -9.6205    0.0000 C   0  0
    2.5450   -9.6205    0.0000 C   0  0
    1.7951   -8.3214    0.0000 C   0  0
    2.5451   -7.0223    0.0000 C   0  0
    1.7974   -5.7210    0.0000 C   0  0
    0.2966   -5.7184    0.0000 C   0  0
   -1.2034   -5.7158    0.0000 N   0  0
    2.5497   -4.4224    0.0000 C   0  0
    1.8032   -3.1233    0.0000 C   0  0
    2.4133   -1.7530    0.0000 C   0  0
    1.2990   -0.7500    0.0000 C   0  0
    1.2990    0.7500    0.0000 C   0  0
    0.0000    1.5000    0.0000 C   0  0
   -1.2990    0.7500    0.0000 C   0  0
   -1.2990   -0.7500    0.0000 C   0  0
    0.0000   -1.5000    0.0000 C   0  0
    0.3114   -2.9665    0.0000 S   0  0
    4.0452   -7.0225    0.0000 C   0  0
    4.7951   -8.3215    0.0000 C   0  0
    6.2959   -8.3185    0.0000 O   0  0
    7.0441   -7.0184    0.0000 C   0  0
  1  2  1  0
  2  3  1  0
  3  4  2  0
  4  5  1  0
  5  6  2  0
  6  7  1  0
  7  8  1  0
  8  9  3  0
  7 10  2  0
 10 11  1  0
 11 12  2  0
 12 13  1  0
 13 14  2  0
 14 15  1  0
 15 16  2  0
 16 17  1  0
 17 18  2  0
 18 13  1  0
 18 19  1  0
 19 11  1  0
  6 20  1  0
 20 21  2  0
 21  3  1  0
 21 22  1  0
 22 23  1  0
M  END
> <Smiles>
COc1ccc(/C(C#N)=C/c2cc3ccccc3s2)cc1OC

> <ID>
CHEMBL3220043

> <standard_value>
45.2

> <IC50_uM>
0.0452

> <Activity>
Yes

> <pIC50>
7.344861565

> <BCI>
1

$$$$

  SciTegic03012415362D

 25 29  0  0  0  0            999 V2000
    2.5981   -1.5000    0.0000 C   0  0
    1.2990   -0.7500    0.0000 N   0  3
    1.2990    0.7500    0.0000 C   0  0
    2.5981    1.5000    0.0000 C   0  0
    2.5981    3.0000    0.0000 C   0  0
    1.2990    3.7500    0.0000 C   0  0
    0.0000    3.0000    0.0000 C   0  0
    0.0000    1.5000    0.0000 C   0  0
   -1.2990    0.7500    0.0000 C   0  0
   -2.6003    1.4977    0.0000 N   0  0
   -3.8990    0.7455    0.0000 C   0  0
   -5.2007    1.4909    0.0000 C   0  0
   -6.4972    0.7364    0.0000 C   0  0
   -6.4920   -0.7636    0.0000 N   0  0
   -5.1903   -1.5091    0.0000 C   0  0
   -3.8939   -0.7546    0.0000 C   0  0
   -1.2990   -0.7500    0.0000 C   0  0
   -2.4133   -1.7530    0.0000 N   0  0
   -1.8032   -3.1233    0.0000 C   0  0
   -2.4134   -4.4924    0.0000 C   0  0
   -1.5318   -5.7059    0.0000 C   0  0
   -0.0400   -5.5491    0.0000 C   0  0
    0.5701   -4.1788    0.0000 C   0  0
   -0.3114   -2.9665    0.0000 C   0  0
    0.0000   -1.5000    0.0000 C   0  0
  1  2  1  0
  2  3  2  0
  3  4  1  0
  4  5  2  0
  5  6  1  0
  6  7  2  0
  7  8  1  0
  8  3  1  0
  8  9  2  0
  9 10  1  0
 10 11  1  0
 11 12  1  0
 12 13  1  0
 13 14  1  0
 14 15  1  0
 15 16  1  0
 16 11  1  0
  9 17  1  0
 17 18  1  0
 18 19  1  0
 19 20  2  0
 20 21  1  0
 21 22  2  0
 22 23  1  0
 23 24  2  0
 24 19  1  0
 24 25  1  0
 25 17  2  0
 25  2  1  0
M  CHG  1   2   1
M  END
> <Smiles>
C[n+]1c2ccccc2c(NC2CCNCC2)c2[nH]c3ccccc3c21.[Cl-]

> <ID>
CHEMBL404321

> <standard_value>
45.71

> <IC50_uM>
0.04571

> <Activity>
Yes

> <pIC50>
7.339988779

> <BCI>
1

> <RemovedSalts>
Cl-

$$$$

  SciTegic03012415362D

 93 95  0  0  1  0            999 V2000
    3.0021   12.0680    0.0000 C   0  0
    2.4917   10.6575    0.0000 C   0  0
    1.0150   10.3947    0.0000 C   0  0
    3.4579    9.5090    0.0000 C   0  0
    2.9432    8.0863    0.0000 C   0  0  1  0  0  0
    1.4942    8.4746    0.0000 O   0  0
    0.0000    8.6053    0.0000 C   0  0
   -0.0001   10.1053    0.0000 O   0  0
   -1.4943    8.4746    0.0000 C   0  0  2  0  0  0
   -1.7599    9.9640    0.0000 C   0  0
   -3.1702   10.4752    0.0000 C   0  0
   -0.6124   10.9301    0.0000 C   0  0
   -2.9432    8.0863    0.0000 N   0  0
   -4.3027    7.4524    0.0000 C   0  0
   -5.0527    8.7514    0.0000 O   0  0
   -5.5314    6.5920    0.0000 C   0  0  2  0  0  0
   -6.4956    7.7411    0.0000 C   0  0
   -6.5921    5.5313    0.0000 O   0  0
   -7.4524    4.3026    0.0000 C   0  0
   -8.7515    5.0526    0.0000 O   0  0
   -8.0863    2.9431    0.0000 C   0  0  1  0  0  0
   -9.5091    3.4579    0.0000 C   0  0
  -10.6569    2.4922    0.0000 C   0  0
   -9.7720    4.9347    0.0000 C   0  0
   -8.4746    1.4943    0.0000 N   0  0
   -8.6053    0.0000    0.0000 C   0  0
  -10.1053    0.0000    0.0000 O   0  0
   -8.4746   -1.4943    0.0000 C   0  0  1  0  0  0
   -9.9650   -1.7542    0.0000 C   0  0
  -10.9283   -0.6032    0.0000 C   0  0
  -12.4060   -0.8608    0.0000 C   0  0
  -10.4129    0.8055    0.0000 C   0  0
   -8.0863   -2.9432    0.0000 O   0  0
   -7.4524   -4.3027    0.0000 C   0  0
   -8.7514   -5.0527    0.0000 O   0  0
   -6.5920   -5.5314    0.0000 C   0  0  2  0  0  0
   -7.7491   -6.5062    0.0000 C   0  0
   -7.4867   -7.9830    0.0000 C   0  0
   -9.1595   -5.9954    0.0000 C   0  0
   -5.5314   -6.5921    0.0000 N   0  0
   -4.3026   -7.4524    0.0000 C   0  0
   -5.0526   -8.7515    0.0000 O   0  0
   -2.9432   -8.0863    0.0000 C   0  0  2  0  0  0
   -3.4562   -9.4959    0.0000 C   0  0
   -1.4943   -8.4746    0.0000 O   0  0
    0.0000   -8.6053    0.0000 C   0  0
    0.0000  -10.1053    0.0000 O   0  0
    1.4943   -8.4746    0.0000 C   0  0  1  0  0  0
    1.7599   -9.9640    0.0000 C   0  0
    3.1701  -10.4752    0.0000 C   0  0
    0.6124  -10.9301    0.0000 C   0  0
    2.9432   -8.0863    0.0000 N   0  0
    4.3027   -7.4524    0.0000 C   0  0
    5.0527   -8.7514    0.0000 O   0  0
    5.5314   -6.5920    0.0000 C   0  0  1  0  0  0
    6.5017   -7.7529    0.0000 C   0  0
    5.9865   -9.1625    0.0000 C   0  0
    6.9468  -10.3149    0.0000 C   0  0
    6.4291  -11.7227    0.0000 C   0  0
    4.9510  -11.9783    0.0000 C   0  0
    3.9907  -10.8260    0.0000 C   0  0
    4.5084   -9.4182    0.0000 C   0  0
    6.5920   -5.5314    0.0000 O   0  0
    7.4524   -4.3026    0.0000 C   0  0
    8.7514   -5.0526    0.0000 O   0  0
    8.0863   -2.9432    0.0000 C   0  0  2  0  0  0
    9.5071   -3.4634    0.0000 C   0  0
    9.7658   -4.9417    0.0000 C   0  0
   11.1736   -5.4596    0.0000 C   0  0
   11.4291   -6.9376    0.0000 C   0  0
   10.2768   -7.8980    0.0000 C   0  0
   10.5295   -9.3774    0.0000 O   0  0
    9.3752  -10.3366    0.0000 C   0  0
    9.6277  -11.8152    0.0000 C   0  0
    7.9683   -9.8164    0.0000 C   0  0
    8.2211  -11.2948    0.0000 C   0  0
    8.8690   -7.3802    0.0000 C   0  0
    8.6135   -5.9022    0.0000 C   0  0
    8.4746   -1.4943    0.0000 N   0  0
    8.6053    0.0000    0.0000 C   0  0
   10.1053    0.0000    0.0000 O   0  0
    8.4746    1.4943    0.0000 C   0  0  2  0  0  0
    9.9518    1.7548    0.0000 C   0  0
    8.0863    2.9432    0.0000 O   0  0
    7.4524    4.3027    0.0000 C   0  0
    8.7514    5.0527    0.0000 O   0  0
    6.5920    5.5314    0.0000 C   0  0  1  0  0  0
    7.7492    6.5061    0.0000 C   0  0
    7.4868    7.9830    0.0000 C   0  0
    9.1595    5.9954    0.0000 C   0  0
    5.5314    6.5920    0.0000 N   0  0
    4.3026    7.4524    0.0000 C   0  0
    5.0526    8.7514    0.0000 O   0  0
  1  2  1  0
  2  3  1  0
  2  4  1  0
  5  4  1  6
  5  6  1  0
  6  7  1  0
  7  8  2  0
  7  9  1  0
  9 10  1  1
 10 11  1  0
 10 12  1  0
  9 13  1  0
 13 14  1  0
 14 15  2  0
 14 16  1  0
 16 17  1  1
 16 18  1  0
 18 19  1  0
 19 20  2  0
 19 21  1  0
 21 22  1  6
 22 23  1  0
 22 24  1  0
 21 25  1  0
 25 26  1  0
 26 27  2  0
 26 28  1  0
 28 29  1  6
 29 30  1  0
 30 31  1  0
 30 32  1  0
 28 33  1  0
 33 34  1  0
 34 35  2  0
 34 36  1  0
 36 37  1  1
 37 38  1  0
 37 39  1  0
 36 40  1  0
 40 41  1  0
 41 42  2  0
 41 43  1  0
 43 44  1  1
 43 45  1  0
 45 46  1  0
 46 47  2  0
 46 48  1  0
 48 49  1  6
 49 50  1  0
 49 51  1  0
 48 52  1  0
 52 53  1  0
 53 54  2  0
 53 55  1  0
 55 56  1  6
 56 57  1  0
 57 58  1  0
 58 59  1  0
 59 60  1  0
 60 61  1  0
 61 62  1  0
 62 57  1  0
 55 63  1  0
 63 64  1  0
 64 65  2  0
 64 66  1  0
 66 67  1  1
 67 68  1  0
 68 69  2  0
 69 70  1  0
 70 71  2  0
 71 72  1  0
 72 73  1  0
 73 74  1  0
 73 75  1  0
 73 76  1  0
 71 77  1  0
 77 78  2  0
 78 68  1  0
 66 79  1  0
 79 80  1  0
 80 81  2  0
 80 82  1  0
 82 83  1  1
 82 84  1  0
 84 85  1  0
 85 86  2  0
 85 87  1  0
 87 88  1  6
 88 89  1  0
 88 90  1  0
 87 91  1  0
 91 92  1  0
 92  5  1  0
 92 93  2  0
M  END
> <Smiles>
CC(C)C[C@H]1OC(=O)[C@H](C(C)C)NC(=O)[C@H](C)OC(=O)[C@@H](C(C)C)NC(=O)[C@@H](CC(C)C)OC(=O)[C@H](C(C)C)NC(=O)[C@H](C)OC(=O)[C@@H](C(C)C)NC(=O)[C@@H](CC2CCCCC2)OC(=O)[C@H](Cc2ccc(OC(C)(C)C)cc2)NC(=O)[C@H
](C)OC(=O)[C@@H](C(C)C)NC1=O

> <ID>
CHEMBL3577204

> <standard_value>
46

> <IC50_uM>
0.046

> <Activity>
Yes

> <pIC50>
7.337242168

> <BCI>
1

$$$$

  SciTegic03012415362D

 25 27  0  0  0  0            999 V2000
    0.2919  -10.9165    0.0000 C   0  0
    1.7919  -10.9187    0.0000 O   0  0
    2.5450   -9.6205    0.0000 C   0  0
    1.7951   -8.3214    0.0000 C   0  0
    2.5451   -7.0223    0.0000 C   0  0
    1.7974   -5.7210    0.0000 C   0  0
    0.2966   -5.7184    0.0000 C   0  0
   -1.2034   -5.7158    0.0000 N   0  0
    2.5497   -4.4224    0.0000 C   0  0
    1.8032   -3.1233    0.0000 C   0  0
    2.4133   -1.7530    0.0000 C   0  0
    1.2990   -0.7500    0.0000 C   0  0
    1.2990    0.7500    0.0000 C   0  0
    0.0000    1.5000    0.0000 C   0  0
   -1.2990    0.7500    0.0000 C   0  0
   -1.2990   -0.7500    0.0000 C   0  0
    0.0000   -1.5000    0.0000 C   0  0
    0.3114   -2.9665    0.0000 S   0  0
    4.0452   -7.0225    0.0000 C   0  0
    4.7951   -8.3215    0.0000 C   0  0
    6.2959   -8.3185    0.0000 O   0  0
    7.0441   -7.0184    0.0000 C   0  0
    4.0450   -9.6205    0.0000 C   0  0
    4.7927  -10.9219    0.0000 O   0  0
    4.0408  -12.2198    0.0000 C   0  0
  1  2  1  0
  2  3  1  0
  3  4  2  0
  4  5  1  0
  5  6  1  0
  6  7  1  0
  7  8  3  0
  6  9  2  0
  9 10  1  0
 10 11  2  0
 11 12  1  0
 12 13  2  0
 13 14  1  0
 14 15  2  0
 15 16  1  0
 16 17  2  0
 17 12  1  0
 17 18  1  0
 18 10  1  0
  5 19  2  0
 19 20  1  0
 20 21  1  0
 21 22  1  0
 20 23  2  0
 23  3  1  0
 23 24  1  0
 24 25  1  0
M  END
> <Smiles>
COc1cc(/C(C#N)=C/c2cc3ccccc3s2)cc(OC)c1OC

> <ID>
CHEMBL3220044

> <standard_value>
46.7

> <IC50_uM>
0.0467

> <Activity>
Yes

> <pIC50>
7.330683119

> <BCI>
1

$$$$

  SciTegic03012415362D

 33 37  0  0  1  0            999 V2000
    2.5228   -3.0436    0.0000 C   0  0
    1.2626   -2.2300    0.0000 C   0  0
    1.2990   -0.7500    0.0000 C   0  0  1  0  0  0
    2.5793    0.0316    0.0000 O   0  0
    1.2990    0.7500    0.0000 C   0  0
    2.5981    1.5000    0.0000 O   0  0
    0.0000    1.5000    0.0000 O   0  0
   -1.2990    0.7500    0.0000 C   0  0
   -1.2990   -0.7500    0.0000 C   0  0
    0.0000   -1.5000    0.0000 C   0  0
    0.0000   -3.0000    0.0000 C   0  0
   -1.2990   -3.7500    0.0000 C   0  0
   -2.5981   -3.0000    0.0000 N   0  0
   -2.5981   -1.5000    0.0000 C   0  0
   -3.8971   -0.7500    0.0000 O   0  0
   -3.7124   -4.0030    0.0000 C   0  0  3  0  0  0
   -5.1785   -3.6942    0.0000 C   0  0
   -6.1813   -4.8108    0.0000 C   0  0
   -5.7156   -6.2367    0.0000 O   0  0
   -7.6499   -4.5015    0.0000 O   0  0
   -8.6528   -5.6181    0.0000 C   0  0
  -10.1214   -5.3088    0.0000 C   0  0
  -11.1237   -6.4248    0.0000 F   0  0
   -3.1022   -5.3733    0.0000 C   0  0
   -3.7125   -6.7424    0.0000 C   0  0
   -2.8308   -7.9559    0.0000 C   0  0
   -3.4409   -9.3262    0.0000 C   0  0
   -2.5592  -10.5397    0.0000 C   0  0
   -1.0674  -10.3829    0.0000 C   0  0
   -0.4573   -9.0126    0.0000 C   0  0
   -1.3390   -7.7991    0.0000 C   0  0
   -0.7289   -6.4288    0.0000 N   0  0
   -1.6105   -5.2165    0.0000 C   0  0
  1  2  1  0
  2  3  1  0
  3  4  1  1
  3  5  1  0
  5  6  2  0
  5  7  1  0
  7  8  1  0
  8  9  1  0
  9 10  2  0
 10  3  1  0
 10 11  1  0
 11 12  2  0
 12 13  1  0
 13 14  1  0
 14  9  1  0
 14 15  2  0
 13 16  1  0
 16 17  1  4
 17 18  1  0
 18 19  2  0
 18 20  1  0
 20 21  1  0
 21 22  1  0
 22 23  1  0
 16 24  1  0
 24 25  2  0
 25 26  1  0
 26 27  2  0
 27 28  1  0
 28 29  2  0
 29 30  1  0
 30 31  2  0
 31 26  1  0
 31 32  1  0
 32 33  2  0
 33 24  1  0
 33 12  1  0
M  END
> <Smiles>
CC[C@@]1(O)C(=O)OCc2c1cc1n(c2=O)C(CC(=O)OCCF)c2cc3ccccc3nc2-1

> <ID>
CHEMBL297421

> <standard_value>
50

> <IC50_uM>
0.05

> <Activity>
Yes

> <pIC50>
7.301029996

> <BCI>
1

$$$$

  SciTegic03012415362D

 24 26  0  0  0  0            999 V2000
    2.5981   -1.5000    0.0000 C   0  0
    1.2990   -0.7500    0.0000 C   0  0
    1.2990    0.7500    0.0000 N   0  0
    0.0000    1.5000    0.0000 C   0  0
    0.0000    3.0000    0.0000 C   0  0
   -1.2991    3.7500    0.0000 C   0  0
   -2.5981    3.0000    0.0000 C   0  0
   -2.5981    1.5000    0.0000 C   0  0
   -1.2990    0.7500    0.0000 C   0  0
   -1.2990   -0.7500    0.0000 C   0  0
   -2.5981   -1.5000    0.0000 O   0  0
    0.0000   -1.5000    0.0000 N   0  0
    0.0031   -3.0008    0.0000 N   0  0
    1.3039   -3.7494    0.0000 C   0  0
    2.6016   -2.9971    0.0000 O   0  0
    1.3070   -5.2502    0.0000 C   0  0
    0.0093   -6.0025    0.0000 Cl  0  0
    2.6078   -5.9988    0.0000 C   0  0
    2.6109   -7.4996    0.0000 C   0  0
    3.9100   -8.2497    0.0000 C   0  0
    3.9100   -9.7497    0.0000 C   0  0
    2.6110  -10.4997    0.0000 C   0  0
    1.3119   -9.7497    0.0000 C   0  0
    1.3119   -8.2497    0.0000 C   0  0
  1  2  1  0
  2  3  2  0
  3  4  1  0
  4  5  2  0
  5  6  1  0
  6  7  2  0
  7  8  1  0
  8  9  2  0
  9  4  1  0
  9 10  1  0
 10 11  2  0
 10 12  1  0
 12  2  1  0
 12 13  1  0
 13 14  1  0
 14 15  2  0
 14 16  1  0
 16 17  1  0
 16 18  2  0
 18 19  1  0
 19 20  2  0
 20 21  1  0
 21 22  2  0
 22 23  1  0
 23 24  2  0
 24 19  1  0
M  END
> <Smiles>
Cc1nc2ccccc2c(=O)n1NC(=O)/C(Cl)=C/c1ccccc1

> <ID>
CHEMBL2297605

> <standard_value>
50

> <IC50_uM>
0.05

> <Activity>
Yes

> <pIC50>
7.301029996

> <BCI>
1

$$$$

  SciTegic03012415362D

 43 49  0  0  1  0            999 V2000
    5.9843   -1.7144    0.0000 C   0  0
    5.6526   -0.2515    0.0000 O   0  0
    4.2194    0.1938    0.0000 C   0  0
    3.1198   -0.8265    0.0000 C   0  0
    1.6852   -0.3846    0.0000 C   0  0
    1.3514    1.0778    0.0000 C   0  0
    2.4522    2.0983    0.0000 C   0  0
    3.8856    1.6562    0.0000 C   0  0
    4.9837    2.6793    0.0000 O   0  0
    4.6476    4.1420    0.0000 C   0  0
    5.7457    5.1651    0.0000 C   0  0
    5.4096    6.6278    0.0000 C   0  0
    6.5077    7.6509    0.0000 N   0  0
    6.1740    9.1133    0.0000 C   0  0
    7.2735   10.1336    0.0000 C   0  0
    8.7069    9.6915    0.0000 N   0  0
    9.8092   10.7101    0.0000 C   0  0
   11.2427   10.2657    0.0000 C   0  0
   12.3449   11.2843    0.0000 C   0  0
   13.7785   10.8399    0.0000 N   0  0
   14.9603   11.7416    0.0000 C   0  0
   15.0997   13.2351    0.0000 C   0  0
   16.4628   13.8611    0.0000 C   0  0
   17.6865   12.9936    0.0000 C   0  0
   17.5471   11.5001    0.0000 C   0  0
   16.1840   10.8741    0.0000 C   0  0
   15.7377    9.4429    0.0000 C   0  0
   16.5028    8.1539    0.0000 C   0  0
   15.7680    6.8462    0.0000 C   0  0
   14.2681    6.8287    0.0000 C   0  0
   13.5030    8.1189    0.0000 C   0  0
   14.2378    9.4254    0.0000 C   0  0
    9.0407    8.2291    0.0000 C   0  0
    7.9412    7.2088    0.0000 C   0  0
    0.0000    1.7286    0.0000 N   0  0
   -1.3515    1.0777    0.0000 C   0  0
   -1.6852   -0.3847    0.0000 C   0  0  2  0  0  0
   -3.0899   -0.9120    0.0000 C   0  0
   -3.0226   -2.4105    0.0000 C   0  0
   -1.5767   -2.8095    0.0000 C   0  0
   -0.7500   -1.5574    0.0000 N   0  0
    0.7500   -1.5574    0.0000 C   0  0
    1.4008   -2.9088    0.0000 O   0  0
  1  2  1  0
  2  3  1  0
  3  4  2  0
  4  5  1  0
  5  6  2  0
  6  7  1  0
  7  8  2  0
  8  3  1  0
  8  9  1  0
  9 10  1  0
 10 11  1  0
 11 12  1  0
 12 13  1  0
 13 14  1  0
 14 15  1  0
 15 16  1  0
 16 17  1  0
 17 18  1  0
 18 19  1  0
 19 20  1  0
 20 21  1  0
 21 22  2  0
 22 23  1  0
 23 24  2  0
 24 25  1  0
 25 26  2  0
 26 21  1  0
 26 27  1  0
 27 28  2  0
 28 29  1  0
 29 30  2  0
 30 31  1  0
 31 32  2  0
 32 27  1  0
 32 20  1  0
 16 33  1  0
 33 34  1  0
 34 13  1  0
  6 35  1  0
 35 36  2  0
 37 36  1  1
 37 38  1  0
 38 39  1  0
 39 40  1  0
 40 41  1  0
 41 37  1  0
 41 42  1  0
 42  5  1  0
 42 43  2  0
M  END
> <Smiles>
COc1cc2c(cc1OCCCN1CCN(CCCn3c4ccccc4c4ccccc43)CC1)N=C[C@@H]1CCCN1C2=O

> <ID>
CHEMBL3221041

> <standard_value>
50

> <IC50_uM>
0.05

> <Activity>
Yes

> <pIC50>
7.301029996

> <BCI>
1

$$$$

  SciTegic03012415362D

 25 28  0  0  0  0            999 V2000
    2.5875   -5.9994    0.0000 C   0  0
    3.8888   -5.2533    0.0000 O   0  0
    3.8943   -3.7525    0.0000 C   0  0
    5.1945   -3.0045    0.0000 C   0  0
    5.1969   -1.5045    0.0000 C   0  0
    3.8991   -0.7525    0.0000 C   0  0
    2.5987   -1.5004    0.0000 C   0  0
    1.2990   -0.7500    0.0000 C   0  0
    1.2990    0.7500    0.0000 C   0  0
    0.0000    1.5000    0.0000 C   0  0
    0.0000    3.0000    0.0000 O   0  0
   -1.2990    0.7500    0.0000 C   0  0
   -2.5981    1.5000    0.0000 C   0  0
   -3.8971    0.7500    0.0000 C   0  0
   -5.1968    1.5003    0.0000 N   0  0
   -5.1993    3.0004    0.0000 C   0  0
   -6.4995    3.7483    0.0000 C   0  0
   -7.7974    2.9963    0.0000 O   0  0
   -7.7950    1.4963    0.0000 C   0  0
   -6.4948    0.7483    0.0000 C   0  0
   -3.8971   -0.7500    0.0000 C   0  0
   -2.5981   -1.5000    0.0000 C   0  0
   -1.2990   -0.7500    0.0000 C   0  0
    0.0000   -1.5000    0.0000 N   0  0
    2.5965   -3.0004    0.0000 C   0  0
  1  2  1  0
  2  3  1  0
  3  4  2  0
  4  5  1  0
  5  6  2  0
  6  7  1  0
  7  8  1  0
  8  9  2  0
  9 10  1  0
 10 11  1  0
 10 12  2  0
 12 13  1  0
 13 14  2  0
 14 15  1  0
 15 16  1  0
 16 17  1  0
 17 18  1  0
 18 19  1  0
 19 20  1  0
 20 15  1  0
 14 21  1  0
 21 22  2  0
 22 23  1  0
 23 12  1  0
 23 24  2  0
 24  8  1  0
  7 25  2  0
 25  3  1  0
M  END
> <Smiles>
COc1cccc(-c2cc(O)c3cc(N4CCOCC4)ccc3n2)c1

> <ID>
CHEMBL50826

> <standard_value>
53.7

> <IC50_uM>
0.0537

> <Activity>
Yes

> <pIC50>
7.270025714

> <BCI>
1

$$$$

  SciTegic03012415362D

 24 27  0  0  0  0            999 V2000
    2.5875   -5.9994    0.0000 C   0  0
    3.8888   -5.2533    0.0000 O   0  0
    3.8943   -3.7525    0.0000 C   0  0
    5.1945   -3.0045    0.0000 C   0  0
    5.1969   -1.5045    0.0000 C   0  0
    3.8991   -0.7525    0.0000 C   0  0
    2.5987   -1.5004    0.0000 C   0  0
    1.2990   -0.7500    0.0000 C   0  0  3  0  0  0
    1.2990    0.7500    0.0000 C   0  0
    2.5988    1.5004    0.0000 C   0  0
    3.8978    2.2504    0.0000 N   0  0
    0.0000    1.5000    0.0000 C   0  0
    0.0000    3.0000    0.0000 N   0  0
   -1.2990    0.7500    0.0000 O   0  0
   -1.2990   -0.7500    0.0000 C   0  0
   -2.5981   -1.5000    0.0000 C   0  0
   -2.5981   -3.0000    0.0000 C   0  0
   -1.2990   -3.7500    0.0000 C   0  0
    0.0000   -3.0000    0.0000 C   0  0
    0.0000   -1.5000    0.0000 C   0  0
   -1.6105   -5.2165    0.0000 O   0  0
   -3.1022   -5.3733    0.0000 C   0  0
   -3.7124   -4.0030    0.0000 O   0  0
    2.5965   -3.0004    0.0000 C   0  0
  1  2  1  0
  2  3  1  0
  3  4  2  0
  4  5  1  0
  5  6  2  0
  6  7  1  0
  8  7  1  4
  8  9  1  0
  9 10  1  0
 10 11  3  0
  9 12  2  0
 12 13  1  0
 12 14  1  0
 14 15  1  0
 15 16  2  0
 16 17  1  0
 17 18  2  0
 18 19  1  0
 19 20  2  0
 20 15  1  0
 20  8  1  0
 18 21  1  0
 21 22  1  0
 22 23  1  0
 23 17  1  0
  7 24  2  0
 24  3  1  0
M  END
> <Smiles>
COc1cccc(C2C(C#N)=C(N)Oc3cc4c(cc32)OCO4)c1

> <ID>
CHEMBL3315167

> <standard_value>
54.1

> <IC50_uM>
0.0541

> <Activity>
Yes

> <pIC50>
7.266802735

> <BCI>
1

$$$$

  SciTegic03012415362D

 27 30  0  0  0  0            999 V2000
    3.8983   -0.7459    0.0000 C   0  0
    2.6003   -1.4977    0.0000 O   0  0
    1.2990   -0.7500    0.0000 C   0  0
    1.2990    0.7500    0.0000 C   0  0
    0.0000    1.5000    0.0000 C   0  0
   -1.2990    0.7500    0.0000 C   0  0
   -2.5973    1.5031    0.0000 N   0  0
   -2.5951    3.0039    0.0000 C   0  0
   -3.8933    3.7570    0.0000 C   0  0
   -5.1925    3.0070    0.0000 C   0  0
   -6.4915    3.7571    0.0000 N   0  0
   -6.4915    5.2571    0.0000 C   0  0
   -7.7905    6.0071    0.0000 N   0  0
   -7.7905    7.5071    0.0000 C   0  0
   -9.0895    8.2571    0.0000 N   0  0
   -6.4914    8.2571    0.0000 N   0  0
   -5.1924    7.5070    0.0000 C   0  0
   -3.8933    8.2570    0.0000 N   0  0
   -5.1924    6.0070    0.0000 C   0  0
   -3.8934    5.2570    0.0000 C   0  0
   -2.5944    6.0070    0.0000 C   0  0
   -1.2990   -0.7500    0.0000 C   0  0
   -2.5981   -1.5000    0.0000 C   0  0
   -2.5981   -3.0000    0.0000 C   0  0
   -1.2990   -3.7500    0.0000 C   0  0
    0.0000   -3.0000    0.0000 C   0  0
    0.0000   -1.5000    0.0000 C   0  0
  1  2  1  0
  2  3  1  0
  3  4  2  0
  4  5  1  0
  5  6  2  0
  6  7  1  0
  7  8  1  0
  8  9  1  0
  9 10  2  0
 10 11  1  0
 11 12  2  0
 12 13  1  0
 13 14  2  0
 14 15  1  0
 14 16  1  0
 16 17  2  0
 17 18  1  0
 17 19  1  0
 19 12  1  0
 19 20  2  0
 20  9  1  0
 20 21  1  0
  6 22  1  0
 22 23  2  0
 23 24  1  0
 24 25  2  0
 25 26  1  0
 26 27  2  0
 27  3  1  0
 27 22  1  0
M  END
> <Smiles>
COc1ccc(NCc2cnc3nc(N)nc(N)c3c2C)c2ccccc12

> <ID>
CHEMBL53903

> <standard_value>
60.4

> <IC50_uM>
0.0604

> <Activity>
Yes

> <pIC50>
7.218963061

> <BCI>
1

$$$$

  SciTegic03012415362D

 69 82  0  0  1  0            999 V2000
  -12.0586   -5.1455    0.0000 C   0  0
  -10.5900   -4.8400    0.0000 C   0  0  2  0  0  0
  -10.1100   -3.3900    0.0000 C   0  0  1  0  0  0
  -11.0600   -2.1300    0.0000 C   0  0
  -10.1100   -0.8800    0.0000 C   0  0  2  0  0  0
   -8.9800    0.1500    0.0000 O   0  0
   -8.6600   -1.3600    0.0000 C   0  0  1  0  0  0
   -7.3200   -0.5600    0.0000 C   0  0  2  0  0  0
   -8.1897   -0.0663    0.0000 O   0  0
   -7.3200    0.9600    0.0000 C   0  0
   -5.9900    1.7400    0.0000 C   0  0
   -4.6500    0.9600    0.0000 C   0  0  1  0  0  0
   -3.3000    1.7400    0.0000 C   0  0
   -1.9800    0.9600    0.0000 C   0  0
   -0.6200    1.7400    0.0000 N   0  0
    0.7000    0.9600    0.0000 C   0  0
    0.7000   -0.5600    0.0000 C   0  0
   -0.6200   -1.3600    0.0000 N   0  0
   -1.9800   -0.5600    0.0000 C   0  0
   -3.3000   -1.3600    0.0000 C   0  0
   -4.6500   -0.5600    0.0000 C   0  0  1  0  0  0
   -4.6476   -2.0600    0.0000 C   0  0
   -5.9900   -1.3600    0.0000 C   0  0
   -5.9800   -2.9100    0.0000 C   0  0
   -7.3200   -3.6800    0.0000 C   0  0
   -7.3200   -5.1800    0.0000 O   0  0
   -8.6600   -2.9100    0.0000 C   0  0  2  0  0  0
   -8.8200   -4.2900    0.0000 C   0  0
   -8.0700   -5.5900    0.0000 O   0  0
   -9.5700   -5.9800    0.0000 C   0  0  2  0  0  0
  -11.0700   -6.2400    0.0000 O   0  0
  -11.3000   -7.7600    0.0000 C   0  0
  -11.3412   -9.2594    0.0000 C   0  0
  -12.5544   -6.9375    0.0000 C   0  0
   -9.9200   -8.4400    0.0000 C   0  0  1  0  0  0
   -9.6720   -9.9194    0.0000 C   0  0
   -8.8400   -7.3500    0.0000 C   0  0  1  0  0  0
   -7.3559   -7.5676    0.0000 O   0  0
    2.0600   -1.3600    0.0000 C   0  0
    3.3900   -0.5600    0.0000 C   0  0  2  0  0  0
    4.7400   -1.3600    0.0000 C   0  0
    6.0800   -0.5600    0.0000 C   0  0
    6.0800    0.9600    0.0000 C   0  0  1  0  0  0
    7.4200    1.7400    0.0000 C   0  0
    8.9000    1.2500    0.0000 C   0  0
    9.8200    2.5000    0.0000 C   0  0  2  0  0  0
   11.2700    2.9800    0.0000 O   0  0
   11.3000    4.6200    0.0000 C   0  0  1  0  0  0
   11.7700    6.1600    0.0000 O   0  0
   13.2900    6.1500    0.0000 C   0  0  2  0  0  0
   14.7791    5.9695    0.0000 C   0  0
   12.6621    7.4979    0.0000 C   0  0
   11.1703    7.6546    0.0000 O   0  0
   13.7800    4.6800    0.0000 C   0  0
   12.5600    3.7500    0.0000 C   0  0  1  0  0  0
   12.5953    2.2504    0.0000 O   0  0
    9.8200    5.0100    0.0000 C   0  0  1  0  0  0
    9.3180    6.4235    0.0000 C   0  0
    8.9000    3.7500    0.0000 C   0  0  1  0  0  0
    8.3184    4.5635    0.0000 O   0  0
    7.4200    3.2900    0.0000 C   0  0  2  0  0  0
    7.5271    4.2842    0.0000 C   0  0
    6.0800    4.0500    0.0000 C   0  0  2  0  0  0
    6.0800    5.5500    0.0000 O   0  0
    4.7400    3.2900    0.0000 C   0  0
    4.7400    1.7400    0.0000 C   0  0  2  0  0  0
    3.3900    0.9600    0.0000 C   0  0  2  0  0  0
    3.3949    2.4600    0.0000 C   0  0
    2.0600    1.7400    0.0000 C   0  0
  2  1  1  6
  2  3  1  0
  3  4  1  1
  5  4  1  6
  5  6  1  0
  7  6  1  6
  7  5  1  0
  7  8  1  0
  8  9  1  1
  8 10  1  0
 10 11  1  0
 12 11  1  1
 12 13  1  0
 13 14  1  0
 14 15  2  0
 15 16  1  0
 16 17  2  0
 17 18  1  0
 18 19  2  0
 19 14  1  0
 19 20  1  0
 20 21  1  0
 21 12  1  0
 21 22  1  1
 21 23  1  0
 23  8  1  0
 23 24  2  0
 24 25  1  0
 25 26  2  0
 25 27  1  0
 27  3  1  0
 27  7  1  0
 27 28  1  1
 28 29  1  0
 30 29  1  6
 30  2  1  0
 30 31  1  0
 31 32  1  0
 32 33  1  0
 32 34  1  0
 32 35  1  0
 35 36  1  6
 35 37  1  0
 37 30  1  0
 37 38  1  6
 17 39  1  0
 40 39  1  1
 40 41  1  0
 41 42  1  0
 43 42  1  6
 43 44  1  0
 44 45  2  0
 46 45  1  1
 46 47  1  0
 48 47  1  1
 48 49  1  0
 49 50  1  0
 50 51  1  1
 50 52  1  0
 52 53  1  0
 50 54  1  0
 54 55  1  0
 55 48  1  0
 55 56  1  1
 48 57  1  0
 57 58  1  6
 57 59  1  0
 59 46  1  0
 59 60  1  6
 59 61  1  0
 61 44  1  0
 61 62  1  1
 61 63  1  0
 63 64  1  1
 63 65  1  0
 66 65  1  1
 66 43  1  0
 66 67  1  0
 67 40  1  0
 67 68  1  1
 67 69  1  0
 69 16  1  0
M  END
> <Smiles>
C[C@@H]1[C@H]2C[C@@H]3O[C@@]34[C@]3(O)CC[C@H]5Cc6nc7c(nc6C[C@]5(C)C3=CC(=O)[C@]24CO[C@]12OC(C)(C)[C@@H](C)[C@H]2O)C[C@@H]1CC[C@H]2C3=C[C@@H]4O[C@]5(O[C@](C)(CO)C[C@H]5O)[C@@H](C)[C@]4(O)[C@@]3(C)[C@H]
(O)C[C@@H]2[C@@]1(C)C7

> <ID>
CHEMBL429496

> <standard_value>
63

> <IC50_uM>
0.063

> <Activity>
Yes

> <pIC50>
7.200659451

> <BCI>
1

$$$$

  SciTegic03012415362D

 27 29  0  0  0  0            999 V2000
    2.5951   -3.0031    0.0000 C   0  0
    2.5973   -1.5031    0.0000 O   0  0
    1.2990   -0.7500    0.0000 C   0  0
    1.2990    0.7500    0.0000 C   0  0
    0.0000    1.5000    0.0000 C   0  0
   -1.2990    0.7500    0.0000 C   0  0
   -1.2990   -0.7500    0.0000 C   0  0
    0.0000   -1.5000    0.0000 C   0  0
   -2.5981   -1.5000    0.0000 O   0  0
   -3.8971   -0.7500    0.0000 C   0  0
   -5.1961   -1.5000    0.0000 N   0  0
   -3.8971    0.7500    0.0000 C   0  0
   -5.1969    1.5004    0.0000 C   0  0
   -6.4959    2.2504    0.0000 N   0  0
   -2.5981    1.5000    0.0000 C   0  0  3  0  0  0
   -2.5981    3.0007    0.0000 C   0  0
   -3.8959    3.7529    0.0000 C   0  0
   -3.8936    5.2529    0.0000 C   0  0
   -5.1937    6.0027    0.0000 O   0  0
   -6.4928    5.2529    0.0000 C   0  0
   -2.5933    6.0009    0.0000 C   0  0
   -2.5879    7.5017    0.0000 O   0  0
   -1.2866    8.2478    0.0000 C   0  0
   -1.2955    5.2488    0.0000 C   0  0
    0.0070    5.9945    0.0000 O   0  0
    1.3038    5.2406    0.0000 C   0  0
   -1.2979    3.7488    0.0000 C   0  0
  1  2  1  0
  2  3  1  0
  3  4  2  0
  4  5  1  0
  5  6  2  0
  6  7  1  0
  7  8  2  0
  8  3  1  0
  7  9  1  0
  9 10  1  0
 10 11  1  0
 10 12  2  0
 12 13  1  0
 13 14  3  0
 12 15  1  0
 15  6  1  0
 15 16  1  4
 16 17  2  0
 17 18  1  0
 18 19  1  0
 19 20  1  0
 18 21  2  0
 21 22  1  0
 22 23  1  0
 21 24  1  0
 24 25  1  0
 25 26  1  0
 24 27  2  0
 27 16  1  0
M  END
> <Smiles>
COc1ccc2c(c1)OC(N)=C(C#N)C2c1cc(OC)c(OC)c(OC)c1

> <ID>
CHEMBL196309

> <standard_value>
73.2

> <IC50_uM>
0.0732

> <Activity>
Yes

> <pIC50>
7.135488919

> <BCI>
1

$$$$

  SciTegic03012415362D

 23 25  0  0  0  0            999 V2000
    2.5875   -5.9994    0.0000 C   0  0
    3.8888   -5.2533    0.0000 O   0  0
    3.8943   -3.7525    0.0000 C   0  0
    5.1945   -3.0045    0.0000 C   0  0
    5.1969   -1.5045    0.0000 C   0  0
    3.8991   -0.7525    0.0000 C   0  0
    2.5987   -1.5004    0.0000 C   0  0
    1.2990   -0.7500    0.0000 C   0  0  3  0  0  0
    1.2990    0.7500    0.0000 C   0  0
    2.5988    1.5004    0.0000 C   0  0
    3.8978    2.2504    0.0000 N   0  0
    0.0000    1.5000    0.0000 C   0  0
    0.0000    3.0000    0.0000 N   0  0
   -1.2990    0.7500    0.0000 O   0  0
   -1.2990   -0.7500    0.0000 C   0  0
   -2.5981   -1.5000    0.0000 C   0  0
   -2.5981   -3.0000    0.0000 C   0  0
   -3.8963   -3.7531    0.0000 O   0  0
   -3.8941   -5.2531    0.0000 C   0  0
   -1.2990   -3.7500    0.0000 C   0  0
    0.0000   -3.0000    0.0000 C   0  0
    0.0000   -1.5000    0.0000 C   0  0
    2.5965   -3.0004    0.0000 C   0  0
  1  2  1  0
  2  3  1  0
  3  4  2  0
  4  5  1  0
  5  6  2  0
  6  7  1  0
  8  7  1  4
  8  9  1  0
  9 10  1  0
 10 11  3  0
  9 12  2  0
 12 13  1  0
 12 14  1  0
 14 15  1  0
 15 16  2  0
 16 17  1  0
 17 18  1  0
 18 19  1  0
 17 20  2  0
 20 21  1  0
 21 22  2  0
 22 15  1  0
 22  8  1  0
  7 23  2  0
 23  3  1  0
M  END
> <Smiles>
COc1cccc(C2C(C#N)=C(N)Oc3cc(OC)ccc32)c1

> <ID>
CHEMBL372210

> <standard_value>
73.5

> <IC50_uM>
0.0735

> <Activity>
Yes

> <pIC50>
7.133712661

> <BCI>
1

$$$$

  SciTegic03012415362D

 68 80  0  0  1  0            999 V2000
    2.6044   -2.9977    0.0000 C   0  0
    2.6003   -1.4977    0.0000 O   0  0
    1.2990   -0.7500    0.0000 C   0  0  1  0  0  0
    1.2990    0.7500    0.0000 C   0  0
    2.5981    1.5000    0.0000 N   0  0
    2.5981    3.0000    0.0000 C   0  0
    1.2990    3.7500    0.0000 C   0  0
    0.0000    3.0000    0.0000 N   0  0
    0.0000    1.5000    0.0000 C   0  0
   -1.2990    0.7500    0.0000 C   0  0
   -1.2990   -0.7500    0.0000 C   0  0  2  0  0  0
   -2.5981   -1.5000    0.0000 C   0  0
   -2.5981   -3.0000    0.0000 C   0  0
   -1.2990   -3.7500    0.0000 C   0  0  1  0  0  0
   -1.2990   -5.2500    0.0000 C   0  0
   -1.9626   -6.8493    0.0000 C   0  0
   -0.9303   -7.9376    0.0000 C   0  0
    0.7043   -7.3783    0.0000 C   0  0  2  0  0  0
   -0.0457   -8.6773    0.0000 C   0  0  2  0  0  0
    0.7043   -9.9764    0.0000 C   0  0
   -1.5457   -8.6773    0.0000 C   0  0  1  0  0  0
   -2.2957   -7.3783    0.0000 O   0  0
   -1.5457   -6.0793    0.0000 C   0  0
    0.0000   -6.0000    0.0000 C   0  0  2  0  0  0
    1.2991   -5.2500    0.0000 C   0  0
    2.5981   -6.0000    0.0000 O   0  0
    1.2991   -3.7500    0.0000 C   0  0
    0.0000   -3.0000    0.0000 C   0  0  2  0  0  0
    0.0000   -1.5000    0.0000 C   0  0  1  0  0  0
    1.2990   -2.2500    0.0000 C   0  0
   -2.7592   -9.6286    0.0000 O   0  0
   -2.2957  -11.0552    0.0000 C   0  0
   -3.7850  -10.8760    0.0000 C   0  0
   -1.6653  -12.4163    0.0000 C   0  0
   -0.7957  -11.0552    0.0000 C   0  0
   -0.3322   -9.6286    0.0000 C   0  0  1  0  0  0
    1.1026   -9.1911    0.0000 O   0  0
    1.2990    5.2500    0.0000 C   0  0
    2.5980    6.0000    0.0000 C   0  0  1  0  0  0
    1.2990    6.7500    0.0000 C   0  0
    3.8971    5.2500    0.0000 C   0  0  1  0  0  0
    5.1961    6.0000    0.0000 C   0  0
    5.1961    7.5000    0.0000 C   0  0
    3.8971    8.2500    0.0000 C   0  0  1  0  0  0
    3.8970    9.7500    0.0000 C   0  0
    4.9927   10.7666    0.0000 C   0  0
    4.3738   12.1330    0.0000 C   0  0  2  0  0  0
    4.6406   13.5994    0.0000 O   0  0
    3.3294   14.3280    0.0000 C   0  0  1  0  0  0
    2.6197   15.6946    0.0000 O   0  0
    3.6343   16.7994    0.0000 C   0  0  2  0  0  0
    4.7744   17.7742    0.0000 C   0  0
    2.2168   17.2503    0.0000 C   0  0
    1.0919   16.2580    0.0000 O   0  0
    4.9986   16.1759    0.0000 C   0  0
    4.8272   14.6857    0.0000 C   0  0  1  0  0  0
    5.9495   13.6905    0.0000 O   0  0
    2.2313   13.3062    0.0000 C   0  0  1  0  0  0
    0.7567   13.5811    0.0000 C   0  0
    2.8830   11.9666    0.0000 C   0  0  1  0  0  0
    1.8915   11.8366    0.0000 O   0  0
    2.5980   10.5000    0.0000 C   0  0  2  0  0  0
    1.7839   11.0807    0.0000 C   0  0
    1.2990    9.7500    0.0000 C   0  0  2  0  0  0
   -0.0001   10.5000    0.0000 O   0  0
    1.2990    8.2500    0.0000 C   0  0
    2.5980    7.5000    0.0000 C   0  0  2  0  0  0
    3.8971    3.7500    0.0000 C   0  0
  1  2  1  0
  3  2  1  6
  3  4  1  0
  4  5  2  0
  5  6  1  0
  6  7  2  0
  7  8  1  0
  8  9  2  0
  9  4  1  0
  9 10  1  0
 11 10  1  1
 11 12  1  0
 12 13  1  0
 14 13  1  6
 14 15  1  0
 15 16  2  0
 16 17  1  0
 18 17  1  6
 18 19  1  0
 19 20  1  6
 19 21  1  0
 21 22  1  1
 22 23  1  0
 24 23  1  1
 24 15  1  0
 24 18  1  0
 24 25  1  0
 25 26  2  0
 25 27  1  0
 28 27  1  1
 28 14  1  0
 28 29  1  0
 29 11  1  0
 29  3  1  0
 29 30  1  1
 21 31  1  0
 31 32  1  0
 32 33  1  0
 32 34  1  0
 32 35  1  0
 35 36  1  0
 36 21  1  0
 36 37  1  6
  7 38  1  0
 38 39  1  0
 39 40  1  1
 39 41  1  0
 41 42  1  1
 42 43  1  0
 44 43  1  6
 44 45  1  0
 45 46  2  0
 47 46  1  1
 47 48  1  0
 49 48  1  1
 49 50  1  0
 50 51  1  0
 51 52  1  1
 51 53  1  0
 53 54  1  0
 51 55  1  0
 55 56  1  0
 56 49  1  0
 56 57  1  1
 49 58  1  0
 58 59  1  6
 58 60  1  0
 60 47  1  0
 60 61  1  6
 60 62  1  0
 62 45  1  0
 62 63  1  1
 62 64  1  0
 64 65  1  1
 64 66  1  0
 67 66  1  1
 67 44  1  0
 67 39  1  0
 41 68  1  0
 68  6  1  0
M  END
> <Smiles>
CO[C@H]1c2nc3c(nc2C[C@@H]2CC[C@H]4C5=CC[C@@H]6[C@H](C)[C@@]7(OC[C@]56C(=O)C[C@@H]4[C@]21C)OC(C)(C)C[C@H]7O)C[C@@]1(C)[C@@H](CC[C@H]2C4=C[C@@H]5O[C@]6(O[C@](C)(CO)C[C@H]6O)[C@@H](C)[C@]5(O)[C@@]4(C)[C@
H](O)C[C@@H]21)C3

> <ID>
CHEMBL445707

> <standard_value>
78

> <IC50_uM>
0.078

> <Activity>
Yes

> <pIC50>
7.107905397

> <BCI>
1

$$$$

  SciTegic03012415362D

 31 35  0  0  1  0            999 V2000
    2.5228   -3.0436    0.0000 C   0  0
    1.2626   -2.2300    0.0000 C   0  0
    1.2990   -0.7500    0.0000 C   0  0  1  0  0  0
    2.5793    0.0316    0.0000 O   0  0
    1.2990    0.7500    0.0000 C   0  0
    2.5981    1.5000    0.0000 O   0  0
    0.0000    1.5000    0.0000 O   0  0
   -1.2990    0.7500    0.0000 C   0  0
   -1.2990   -0.7500    0.0000 C   0  0
    0.0000   -1.5000    0.0000 C   0  0
    0.0000   -3.0000    0.0000 C   0  0
   -1.2990   -3.7500    0.0000 C   0  0
   -2.5981   -3.0000    0.0000 N   0  0
   -2.5981   -1.5000    0.0000 C   0  0
   -3.8971   -0.7500    0.0000 O   0  0
   -3.7124   -4.0030    0.0000 C   0  0
   -3.1022   -5.3733    0.0000 C   0  0
   -3.7125   -6.7424    0.0000 C   0  0
   -2.8308   -7.9559    0.0000 C   0  0
   -3.4409   -9.3262    0.0000 C   0  0
   -4.9332   -9.4862    0.0000 C   0  0
   -5.5417  -10.8581    0.0000 N   0  0
   -7.0331  -11.0180    0.0000 C   0  0
   -4.6579  -12.0701    0.0000 C   0  0
   -2.5592  -10.5397    0.0000 C   0  0
   -3.1693  -11.9101    0.0000 O   0  0
   -1.0674  -10.3829    0.0000 C   0  0
   -0.4573   -9.0126    0.0000 C   0  0
   -1.3390   -7.7991    0.0000 C   0  0
   -0.7289   -6.4288    0.0000 N   0  0
   -1.6105   -5.2165    0.0000 C   0  0
  1  2  1  0
  2  3  1  0
  3  4  1  1
  3  5  1  0
  5  6  2  0
  5  7  1  0
  7  8  1  0
  8  9  1  0
  9 10  2  0
 10  3  1  0
 10 11  1  0
 11 12  2  0
 12 13  1  0
 13 14  1  0
 14  9  1  0
 14 15  2  0
 13 16  1  0
 16 17  1  0
 17 18  2  0
 18 19  1  0
 19 20  2  0
 20 21  1  0
 21 22  1  0
 22 23  1  0
 22 24  1  0
 20 25  1  0
 25 26  1  0
 25 27  2  0
 27 28  1  0
 28 29  2  0
 29 19  1  0
 29 30  1  0
 30 31  2  0
 31 17  1  0
 31 12  1  0
M  END
> <Smiles>
CC[C@@]1(O)C(=O)OCc2c1cc1n(c2=O)Cc2cc3c(CN(C)C)c(O)ccc3nc2-1

> <ID>
CHEMBL84

> <standard_value>
80

> <IC50_uM>
0.08

> <Activity>
Yes

> <pIC50>
7.096910013

> <BCI>
1

$$$$

  SciTegic03012415362D

 68 81  0  0  1  0            999 V2000
  -12.0586   -5.1455    0.0000 C   0  0
  -10.5900   -4.8400    0.0000 C   0  0  2  0  0  0
  -10.1100   -3.3900    0.0000 C   0  0  1  0  0  0
  -11.0600   -2.1300    0.0000 C   0  0
  -10.1100   -0.8800    0.0000 C   0  0  2  0  0  0
   -8.9800    0.1500    0.0000 O   0  0
   -8.6600   -1.3600    0.0000 C   0  0  1  0  0  0
   -7.3200   -0.5600    0.0000 C   0  0  2  0  0  0
   -8.1897   -0.0663    0.0000 O   0  0
   -7.3200    0.9600    0.0000 C   0  0
   -5.9900    1.7400    0.0000 C   0  0
   -4.6500    0.9600    0.0000 C   0  0  1  0  0  0
   -3.3000    1.7400    0.0000 C   0  0
   -1.9800    0.9600    0.0000 C   0  0
   -0.6200    1.7400    0.0000 N   0  0
    0.7000    0.9600    0.0000 C   0  0
    0.7000   -0.5600    0.0000 C   0  0
   -0.6200   -1.3600    0.0000 N   0  0
   -1.9800   -0.5600    0.0000 C   0  0
   -3.3000   -1.3600    0.0000 C   0  0
   -4.6500   -0.5600    0.0000 C   0  0  1  0  0  0
   -4.6476   -2.0600    0.0000 C   0  0
   -5.9900   -1.3600    0.0000 C   0  0
   -5.9800   -2.9100    0.0000 C   0  0
   -7.3200   -3.6800    0.0000 C   0  0
   -7.3200   -5.1800    0.0000 O   0  0
   -8.6600   -2.9100    0.0000 C   0  0  2  0  0  0
   -8.8200   -4.2900    0.0000 C   0  0
   -8.0700   -5.5900    0.0000 O   0  0
   -9.5700   -5.9800    0.0000 C   0  0  2  0  0  0
  -11.0700   -6.2400    0.0000 O   0  0
  -11.3000   -7.7600    0.0000 C   0  0
  -11.3412   -9.2594    0.0000 C   0  0
  -12.5544   -6.9375    0.0000 C   0  0
   -9.9200   -8.4400    0.0000 C   0  0
   -8.8400   -7.3500    0.0000 C   0  0  1  0  0  0
   -7.3559   -7.5676    0.0000 O   0  0
    2.0600   -1.3600    0.0000 C   0  0
    3.3900   -0.5600    0.0000 C   0  0  2  0  0  0
    4.7400   -1.3600    0.0000 C   0  0
    6.0800   -0.5600    0.0000 C   0  0
    6.0800    0.9600    0.0000 C   0  0  1  0  0  0
    7.4200    1.7400    0.0000 C   0  0
    8.9000    1.2500    0.0000 C   0  0
    9.8200    2.5000    0.0000 C   0  0  2  0  0  0
   11.2700    2.9800    0.0000 O   0  0
   11.3000    4.6200    0.0000 C   0  0  1  0  0  0
   11.7700    6.1600    0.0000 O   0  0
   13.2900    6.1500    0.0000 C   0  0  2  0  0  0
   14.7791    5.9695    0.0000 C   0  0
   12.6621    7.4979    0.0000 C   0  0
   11.1703    7.6546    0.0000 O   0  0
   13.7800    4.6800    0.0000 C   0  0
   12.5600    3.7500    0.0000 C   0  0  1  0  0  0
   12.5953    2.2504    0.0000 O   0  0
    9.8200    5.0100    0.0000 C   0  0  1  0  0  0
    9.3180    6.4235    0.0000 C   0  0
    8.9000    3.7500    0.0000 C   0  0  1  0  0  0
    8.3184    4.5635    0.0000 O   0  0
    7.4200    3.2900    0.0000 C   0  0  2  0  0  0
    7.5271    4.2842    0.0000 C   0  0
    6.0800    4.0500    0.0000 C   0  0  2  0  0  0
    6.0800    5.5500    0.0000 O   0  0
    4.7400    3.2900    0.0000 C   0  0
    4.7400    1.7400    0.0000 C   0  0  2  0  0  0
    3.3900    0.9600    0.0000 C   0  0  2  0  0  0
    3.3949    2.4600    0.0000 C   0  0
    2.0600    1.7400    0.0000 C   0  0
  2  1  1  6
  2  3  1  0
  3  4  1  1
  5  4  1  6
  5  6  1  0
  7  6  1  6
  7  5  1  0
  7  8  1  0
  8  9  1  1
  8 10  1  0
 10 11  1  0
 12 11  1  1
 12 13  1  0
 13 14  1  0
 14 15  2  0
 15 16  1  0
 16 17  2  0
 17 18  1  0
 18 19  2  0
 19 14  1  0
 19 20  1  0
 20 21  1  0
 21 12  1  0
 21 22  1  1
 21 23  1  0
 23  8  1  0
 23 24  2  0
 24 25  1  0
 25 26  2  0
 25 27  1  0
 27  3  1  0
 27  7  1  0
 27 28  1  1
 28 29  1  0
 30 29  1  6
 30  2  1  0
 30 31  1  0
 31 32  1  0
 32 33  1  0
 32 34  1  0
 32 35  1  0
 35 36  1  0
 36 30  1  0
 36 37  1  6
 17 38  1  0
 39 38  1  1
 39 40  1  0
 40 41  1  0
 42 41  1  6
 42 43  1  0
 43 44  2  0
 45 44  1  1
 45 46  1  0
 47 46  1  1
 47 48  1  0
 48 49  1  0
 49 50  1  1
 49 51  1  0
 51 52  1  0
 49 53  1  0
 53 54  1  0
 54 47  1  0
 54 55  1  1
 47 56  1  0
 56 57  1  6
 56 58  1  0
 58 45  1  0
 58 59  1  6
 58 60  1  0
 60 43  1  0
 60 61  1  1
 60 62  1  0
 62 63  1  1
 62 64  1  0
 65 64  1  1
 65 42  1  0
 65 66  1  0
 66 39  1  0
 66 67  1  1
 66 68  1  0
 68 16  1  0
M  END
> <Smiles>
C[C@@H]1[C@H]2C[C@@H]3O[C@@]34[C@]3(O)CC[C@H]5Cc6nc7c(nc6C[C@]5(C)C3=CC(=O)[C@]24CO[C@]12OC(C)(C)C[C@H]2O)C[C@@H]1CC[C@H]2C3=C[C@@H]4O[C@]5(O[C@](C)(CO)C[C@H]5O)[C@@H](C)[C@]4(O)[C@@]3(C)[C@H](O)C[C@@
H]2[C@@]1(C)C7

> <ID>
CHEMBL269336

> <standard_value>
80

> <IC50_uM>
0.08

> <Activity>
Yes

> <pIC50>
7.096910013

> <BCI>
1

$$$$

  SciTegic03012415362D

 29 34  0  0  0  0            999 V2000
    1.7873   -7.6070    0.0000 C   0  0
    2.8494   -6.5479    0.0000 O   0  0
    2.4639   -5.0974    0.0000 C   0  0
    1.0150   -4.7092    0.0000 C   0  0
    0.6268   -3.2603    0.0000 C   0  0
    1.6875   -2.1996    0.0000 C   0  0
    1.2990   -0.7500    0.0000 C   0  0  3  0  0  0
    2.7808   -0.7500    0.0000 O   0  0
    2.7808    0.7500    0.0000 C   0  0
    1.2990    0.7500    0.0000 C   0  0  3  0  0  0
   -0.3115    2.9665    0.0000 C   0  0  3  0  0  0
   -1.8032    3.1233    0.0000 C   0  0
   -2.4133    1.7530    0.0000 O   0  0
   -1.2990    0.7500    0.0000 C   0  0  3  0  0  0
   -1.2990   -0.7500    0.0000 C   0  0
   -2.5981   -1.5000    0.0000 C   0  0
   -2.5981   -3.0000    0.0000 C   0  0
   -3.8994   -3.7478    0.0000 O   0  0
   -5.1973   -2.9959    0.0000 C   0  0
   -1.2990   -3.7500    0.0000 C   0  0
   -1.2959   -5.2508    0.0000 O   0  0
    0.0042   -5.9990    0.0000 C   0  0
    0.0000   -3.0000    0.0000 C   0  0
    0.0000   -1.5000    0.0000 C   0  0
    0.0000    1.5000    0.0000 C   0  0  3  0  0  0
    3.1364   -2.5878    0.0000 C   0  0
    3.5246   -4.0367    0.0000 C   0  0
    4.9751   -4.4222    0.0000 O   0  0
    6.0342   -3.3600    0.0000 C   0  0
  1  2  1  0
  2  3  1  0
  3  4  2  0
  4  5  1  0
  5  6  2  0
  7  6  1  4
  7  8  1  0
  8  9  1  0
 10  9  1  4
 10  7  1  0
 10 11  1  0
 11 12  1  4
 12 13  1  0
 14 13  1  4
 14 15  1  0
 15 16  2  0
 16 17  1  0
 17 18  1  0
 18 19  1  0
 17 20  2  0
 20 21  1  0
 21 22  1  0
 20 23  1  0
 23 24  2  0
 24 15  1  0
 24  7  1  0
 25 14  1  4
 25 11  1  0
 25 10  1  0
  6 26  1  0
 26 27  2  0
 27  3  1  0
 27 28  1  0
 28 29  1  0
M  END
> <Smiles>
COc1ccc(C23OCC24C2COC(c5cc(OC)c(OC)cc53)C24)cc1OC

> <ID>
CHEMBL18378

> <standard_value>
85.11

> <IC50_uM>
0.08511

> <Activity>
Yes

> <pIC50>
7.070019409

> <BCI>
1

$$$$

  SciTegic03012415362D

 30 33  0  0  1  0            999 V2000
   -0.5806    4.4703    0.0000 C   0  0
    0.7516    3.7808    0.0000 O   0  0
    0.8213    2.2772    0.0000 C   0  0
    0.0000    1.7545    0.0000 C   0  0
    0.0000    0.6906    0.0000 C   0  0
    0.8213    0.1680    0.0000 C   0  0
    1.7359    0.6906    0.0000 C   0  0
    1.7359    1.7545    0.0000 C   0  0
    3.0372    2.5108    0.0000 O   0  0
    4.3389    1.7654    0.0000 C   0  0
    0.8213   -2.0718    0.0000 C   0  0  2  0  0  0
   -0.5226   -1.1572    0.0000 O   0  0
   -1.7545   -2.0718    0.0000 C   0  0
   -1.2692   -3.3784    0.0000 C   0  0  2  0  0  0
   -1.3252    0.3173    0.0000 C   0  0  2  0  0  0
   -2.5285    1.2142    0.0000 C   0  0
   -2.5886    2.7041    0.0000 C   0  0
   -3.9159    3.4028    0.0000 C   0  0
   -3.9714    4.9026    0.0000 O   0  0
   -2.7014    5.7009    0.0000 C   0  0
   -5.1847    2.6027    0.0000 C   0  0
   -6.5142    3.2991    0.0000 O   0  0
   -7.7818    2.4972    0.0000 C   0  0
   -5.1262    1.1039    0.0000 C   0  0
   -6.3941    0.3007    0.0000 O   0  0
   -6.3334   -1.1981    0.0000 C   0  0
   -3.7989    0.4051    0.0000 C   0  0
    0.2613   -3.3784    0.0000 C   0  0  2  0  0  0
    1.1057   -4.6177    0.0000 C   0  0
    0.4559   -5.9696    0.0000 O   0  0
  1  2  1  0
  2  3  1  0
  3  4  2  0
  4  5  1  0
  5  6  2  0
  6  7  1  0
  7  8  2  0
  8  3  1  0
  8  9  1  0
  9 10  1  0
  6 11  1  0
 11 12  1  6
 12 13  1  0
 14 13  1  6
 14 15  1  0
 15  5  1  0
 15 16  1  6
 16 17  2  0
 17 18  1  0
 18 19  1  0
 19 20  1  0
 18 21  2  0
 21 22  1  0
 22 23  1  0
 21 24  1  0
 24 25  1  0
 25 26  1  0
 24 27  2  0
 27 16  1  0
 14 28  1  0
 28 11  1  0
 28 29  1  1
 29 30  1  0
M  END
> <Smiles>
COc1cc2c(cc1OC)[C@@H]1OC[C@H]([C@@H]2c2cc(OC)c(OC)c(OC)c2)[C@@H]1CO

> <ID>
CHEMBL17581

> <standard_value>
85.11

> <IC50_uM>
0.08511

> <Activity>
Yes

> <pIC50>
7.070019409

> <BCI>
1

$$$$

  SciTegic03012415362D

 40 43  0  0  1  0            999 V2000
   -3.8109  -11.3760    0.0000 C   0  0
   -2.3446  -11.6924    0.0000 C   0  0
   -1.8859  -13.1205    0.0000 O   0  0
   -1.3373  -10.5798    0.0000 O   0  0
   -1.7962   -9.1509    0.0000 C   0  0
   -2.8035  -10.2623    0.0000 C   0  0
   -3.2625   -8.8345    0.0000 C   0  0
   -0.7889   -8.0383    0.0000 C   0  0
   -1.2479   -6.6094    0.0000 C   0  0
   -0.2405   -5.4968    0.0000 C   0  0
    1.2257   -5.8132    0.0000 O   0  0
   -0.6995   -4.0679    0.0000 C   0  0  2  0  0  0
   -2.1657   -3.7515    0.0000 C   0  0
    0.7668   -4.3843    0.0000 O   0  0
    0.3061   -2.9572    0.0000 C   0  0  1  0  0  0
    1.7979   -3.1140    0.0000 C   0  0  2  0  0  0
    2.5479   -4.4130    0.0000 O   0  0
    2.4080   -1.7436    0.0000 C   0  0
    1.2990   -0.7500    0.0000 C   0  0  1  0  0  0
    2.6686   -0.1382    0.0000 C   0  0
    1.2990    0.7500    0.0000 C   0  0  2  0  0  0
    2.5981    1.5000    0.0000 C   0  0
    2.5981    3.0000    0.0000 C   0  0
    1.2990    3.7500    0.0000 C   0  0
    0.0000    3.0000    0.0000 C   0  0  1  0  0  0
   -1.2991    3.7500    0.0000 C   0  0
   -1.2991    5.2500    0.0000 C   0  0  2  0  0  0
   -2.5981    6.0000    0.0000 O   0  0
    0.0000    6.0000    0.0000 C   0  0  1  0  0  0
   -0.0001    7.5000    0.0000 O   0  0
    1.2990    5.2500    0.0000 C   0  0
    2.5800    4.4696    0.0000 C   0  0
    1.2638    6.7496    0.0000 C   0  0
    0.0000    1.5000    0.0000 C   0  0  1  0  0  0
   -1.2991    2.2500    0.0000 C   0  0
   -1.2990    0.7500    0.0000 C   0  0
   -2.5981    1.5000    0.0000 O   0  0
   -1.2990   -0.7500    0.0000 C   0  0
    0.0000   -1.5000    0.0000 C   0  0  2  0  0  0
   -1.2146   -2.3802    0.0000 C   0  0
  1  2  1  0
  2  3  2  0
  2  4  1  0
  4  5  1  0
  5  6  1  0
  5  7  1  0
  5  8  1  0
  8  9  2  0
  9 10  1  0
 10 11  2  0
 10 12  1  0
 12 13  1  6
 12 14  1  0
 15 12  1  6
 15 16  1  0
 16 17  1  1
 16 18  1  0
 18 19  1  0
 19 20  1  1
 19 21  1  0
 21 22  1  1
 22 23  1  0
 23 24  2  0
 24 25  1  0
 25 26  1  6
 26 27  1  0
 27 28  1  6
 27 29  1  0
 29 30  1  1
 29 31  1  0
 31 24  1  0
 31 32  1  0
 31 33  1  0
 25 34  1  0
 34 21  1  0
 34 35  1  6
 34 36  1  0
 36 37  2  0
 36 38  1  0
 38 39  1  0
 39 15  1  0
 39 19  1  0
 39 40  1  6
M  END
> <Smiles>
CC(=O)OC(C)(C)/C=C/C(=O)[C@](C)(O)[C@H]1[C@H](O)C[C@@]2(C)[C@@H]3CC=C4[C@@H](C[C@H](O)[C@@H](O)C4(C)C)[C@]3(C)C(=O)C[C@]12C

> <ID>
CHEMBL447610

> <standard_value>
87

> <IC50_uM>
0.087

> <Activity>
Yes

> <pIC50>
7.060480747

> <BCI>
1

$$$$

  SciTegic03012415362D

 24 27  0  0  0  0            999 V2000
    5.1887   -6.0105    0.0000 N   0  0
    3.8912   -5.2578    0.0000 C   0  0
    3.8933   -3.7570    0.0000 C   0  0
    2.5951   -3.0039    0.0000 C   0  0
    2.5973   -1.5031    0.0000 C   0  0
    1.2990   -0.7500    0.0000 N   0  0
    1.2990    0.7500    0.0000 C   0  0
    0.0000    1.5000    0.0000 C   0  0
   -1.2990    0.7500    0.0000 C   0  0
   -2.5981    1.5000    0.0000 C   0  0
   -3.8971    0.7500    0.0000 C   0  0
   -3.8971   -0.7500    0.0000 C   0  0
   -2.5981   -1.5000    0.0000 C   0  0
   -1.2990   -0.7500    0.0000 C   0  0
    0.0000   -1.5000    0.0000 C   0  0
    0.0000   -3.0000    0.0000 O   0  0
    0.3114    2.9665    0.0000 C   0  0
   -0.6924    4.0811    0.0000 O   0  0
    1.8032    3.1233    0.0000 C   0  0
    2.6837    4.3363    0.0000 C   0  0
    4.1755    4.1795    0.0000 C   0  0
    4.7856    2.8092    0.0000 C   0  0
    3.9040    1.5957    0.0000 C   0  0
    2.4133    1.7530    0.0000 C   0  0
  1  2  1  0
  2  3  1  0
  3  4  1  0
  4  5  1  0
  5  6  1  0
  6  7  1  0
  7  8  2  0
  8  9  1  0
  9 10  2  0
 10 11  1  0
 11 12  2  0
 12 13  1  0
 13 14  2  0
 14  9  1  0
 14 15  1  0
 15  6  1  0
 15 16  2  0
  8 17  1  0
 17 18  2  0
 17 19  1  0
 19 20  2  0
 20 21  1  0
 21 22  2  0
 22 23  1  0
 23 24  2  0
 24 19  1  0
 24  7  1  0
M  END
> <Smiles>
Cl.NCCCCn1c2c(c3ccccc3c1=O)C(=O)c1ccccc1-2

> <ID>
CHEMBL187863

> <standard_value>
100

> <IC50_uM>
0.1

> <Activity>
Yes

> <pIC50>
7

> <BCI>
1

> <RemovedSalts>
HCl

$$$$

  SciTegic03012415362D

 24 27  0  0  0  0            999 V2000
    6.9841    5.2554    0.0000 C   0  0
    5.5263    4.9023    0.0000 O   0  0
    5.1019    3.4627    0.0000 C   0  0
    3.6446    3.1076    0.0000 C   0  0
    3.2235    1.6679    0.0000 C   0  0
    4.2568    0.5878    0.0000 C   0  0
    3.9511   -0.8815    0.0000 C   0  0
    4.9531   -1.9978    0.0000 N   0  0
    4.2010   -3.2956    0.0000 N   0  0
    2.7343   -2.9815    0.0000 N   0  0
    2.5987   -1.5004    0.0000 C   0  0
    1.2990   -0.7500    0.0000 C   0  0
    1.2990    0.7500    0.0000 C   0  0
    0.0000    1.5000    0.0000 C   0  0
    0.0031    3.0008    0.0000 O   0  0
    1.3032    3.7490    0.0000 C   0  0
   -1.2990    0.7500    0.0000 C   0  0
   -1.2990   -0.7500    0.0000 C   0  0
    0.0000   -1.5000    0.0000 C   0  0
   -2.7248   -1.2135    0.0000 O   0  0
   -3.6065    0.0000    0.0000 C   0  0
   -2.7248    1.2135    0.0000 O   0  0
    5.7171    0.9385    0.0000 C   0  0
    6.1382    2.3782    0.0000 C   0  0
  1  2  1  0
  2  3  1  0
  3  4  2  0
  4  5  1  0
  5  6  2  0
  6  7  1  0
  7  8  1  0
  8  9  2  0
  9 10  1  0
 10 11  1  0
 11  7  2  0
 11 12  1  0
 12 13  2  0
 13 14  1  0
 14 15  1  0
 15 16  1  0
 14 17  2  0
 17 18  1  0
 18 19  2  0
 19 12  1  0
 18 20  1  0
 20 21  1  0
 21 22  1  0
 22 17  1  0
  6 23  1  0
 23 24  2  0
 24  3  1  0
M  END
> <Smiles>
COc1ccc(-c2nn[nH]c2-c2cc(OC)c3c(c2)OCO3)cc1

> <ID>
CHEMBL3105457

> <standard_value>
101

> <IC50_uM>
0.101

> <Activity>
Yes

> <pIC50>
6.995678626

> <BCI>
1

$$$$

  SciTegic03012415362D

 66 78  0  0  1  0            999 V2000
   -1.8413   -4.5811    0.0000 C   0  0
   -0.3667   -4.3062    0.0000 C   0  0  2  0  0  0
    0.7315   -5.3280    0.0000 C   0  0  2  0  0  0
    2.0426   -4.5993    0.0000 O   0  0
    1.7758   -3.1329    0.0000 C   0  0  1  0  0  0
    2.3947   -1.7666    0.0000 C   0  0
    1.2990   -0.7500    0.0000 C   0  0
    1.2990    0.7500    0.0000 C   0  0  2  0  0  0
    2.5981    1.5000    0.0000 C   0  0
    2.5981    3.0000    0.0000 C   0  0
    1.2990    3.7500    0.0000 C   0  0  1  0  0  0
    1.2990    5.2500    0.0000 C   0  0
    0.0000    6.0000    0.0000 C   0  0
   -0.0001    7.5000    0.0000 N   0  0
   -1.2991    8.2500    0.0000 C   0  0
   -2.5981    7.5000    0.0000 C   0  0
   -2.5981    6.0000    0.0000 N   0  0
   -1.2991    5.2500    0.0000 C   0  0
   -1.2991    3.7500    0.0000 C   0  0
    0.0000    3.0000    0.0000 C   0  0  1  0  0  0
   -1.2991    2.2500    0.0000 C   0  0
    0.0000    1.5000    0.0000 C   0  0  1  0  0  0
   -1.2990    0.7500    0.0000 C   0  0
   -1.2990   -0.7500    0.0000 C   0  0  1  0  0  0
   -2.5981   -1.5000    0.0000 O   0  0
    0.0000   -1.5000    0.0000 C   0  0  1  0  0  0
   -0.8141   -2.0807    0.0000 C   0  0
    0.2851   -2.9666    0.0000 C   0  0  1  0  0  0
   -0.7064   -2.8366    0.0000 O   0  0
   -3.8972    8.2500    0.0000 C   0  0
   -3.8972    9.7500    0.0000 C   0  0  2  0  0  0
   -5.1963   10.4999    0.0000 C   0  0
   -5.1963   11.9999    0.0000 C   0  0
   -3.8972   12.7500    0.0000 C   0  0  1  0  0  0
   -3.8973   14.2500    0.0000 C   0  0
   -4.9929   15.2665    0.0000 C   0  0
   -4.3741   16.6329    0.0000 C   0  0  2  0  0  0
   -4.6409   18.0993    0.0000 O   0  0
   -3.3297   18.8280    0.0000 C   0  0  1  0  0  0
   -2.4967   20.1303    0.0000 C   0  0
   -3.1202   21.4945    0.0000 C   0  0
   -4.6135   21.6367    0.0000 C   0  0  2  0  0  0
   -6.1097   21.7435    0.0000 C   0  0
   -3.7153   22.8380    0.0000 O   0  0
   -5.4832   20.4145    0.0000 C   0  0
   -4.8596   19.0503    0.0000 O   0  0
   -2.2316   17.8062    0.0000 C   0  0
   -2.8833   16.4666    0.0000 C   0  0  1  0  0  0
   -1.8918   16.3366    0.0000 O   0  0
   -2.5982   15.0000    0.0000 C   0  0  2  0  0  0
   -1.7841   15.5807    0.0000 C   0  0
   -1.2992   14.2500    0.0000 C   0  0  2  0  0  0
   -0.0001   15.0000    0.0000 O   0  0
   -1.2992   12.7500    0.0000 C   0  0
   -2.5982   12.0000    0.0000 C   0  0  2  0  0  0
   -2.5982   10.5000    0.0000 C   0  0  2  0  0  0
   -1.2992   11.2500    0.0000 C   0  0
   -1.2991    9.7500    0.0000 C   0  0
    1.0928   -6.8249    0.0000 O   0  0
   -0.1571   -7.6541    0.0000 C   0  0  2  0  0  0
   -1.4977   -8.3271    0.0000 C   0  0
    1.1109   -8.4318    0.0000 C   0  0
    1.0957   -9.9317    0.0000 O   0  0
   -1.3321   -6.7217    0.0000 C   0  0
   -0.8083   -5.3161    0.0000 C   0  0  1  0  0  0
   -1.6592   -4.0808    0.0000 O   0  0
  2  1  1  1
  2  3  1  0
  3  4  1  1
  5  4  1  6
  5  6  1  0
  6  7  2  0
  7  8  1  0
  8  9  1  1
  9 10  1  0
 11 10  1  6
 11 12  1  0
 12 13  1  0
 13 14  2  0
 14 15  1  0
 15 16  2  0
 16 17  1  0
 17 18  2  0
 18 13  1  0
 18 19  1  0
 19 20  1  0
 20 11  1  0
 20 21  1  6
 20 22  1  0
 22  8  1  0
 22 23  1  6
 23 24  1  0
 24 25  1  6
 24 26  1  0
 26  7  1  0
 26 27  1  6
 26 28  1  0
 28  5  1  0
 28  2  1  0
 28 29  1  1
 16 30  1  0
 31 30  1  6
 31 32  1  0
 32 33  1  0
 34 33  1  1
 34 35  1  0
 35 36  2  0
 37 36  1  6
 37 38  1  0
 39 38  1  6
 39 40  1  0
 40 41  1  0
 41 42  1  0
 42 43  1  6
 42 44  1  0
 42 45  1  0
 45 46  1  0
 46 39  1  0
 39 47  1  0
 47 48  1  0
 48 37  1  0
 48 49  1  1
 48 50  1  0
 50 35  1  0
 50 51  1  6
 50 52  1  0
 52 53  1  6
 52 54  1  0
 55 54  1  6
 55 34  1  0
 55 56  1  0
 56 31  1  0
 56 57  1  6
 56 58  1  0
 58 15  1  0
  3 59  1  0
 59 60  1  0
 60 61  1  1
 60 62  1  0
 62 63  1  0
 60 64  1  0
 64 65  1  0
 65  3  1  0
 65 66  1  1
M  END
> <Smiles>
C[C@@H]1[C@]2(O[C@H]3C=C4[C@@H]5CC[C@H]6Cc7nc8c(nc7C[C@]6(C)[C@H]5C[C@@H](O)[C@]4(C)[C@]31O)C[C@@H]1CC[C@H]3C4=C[C@@H]5O[C@]6(CC[C@](C)(O)CO6)C[C@]5(O)[C@@]4(C)[C@H](O)C[C@@H]3[C@@]1(C)C8)O[C@](C)(CO)
C[C@H]2O

> <ID>
CHEMBL256973

> <standard_value>
110

> <IC50_uM>
0.11

> <Activity>
Yes

> <pIC50>
6.958607315

> <BCI>
1

$$$$

  SciTegic03012415362D

 46 51  0  0  0  0            999 V2000
    2.5981   -1.5000    0.0000 O   0  0
    1.2990   -0.7500    0.0000 C   0  0
    1.2990    0.7500    0.0000 C   0  0
    2.5981    1.5000    0.0000 C   0  0
    2.5981    3.0000    0.0000 C   0  0
    1.2990    3.7500    0.0000 C   0  0
    0.0000    3.0000    0.0000 C   0  0
   -1.2991    3.7500    0.0000 C   0  0
   -2.5981    3.0000    0.0000 C   0  0
   -2.5981    1.5000    0.0000 C   0  0
   -1.2990    0.7500    0.0000 C   0  0
    0.0000    1.5000    0.0000 C   0  0
   -1.2990   -0.7500    0.0000 C   0  0
   -2.5981   -1.5000    0.0000 O   0  0
    0.0000   -1.5000    0.0000 N   0  0
    0.0031   -3.0008    0.0000 C   0  0
    1.3039   -3.7494    0.0000 C   0  0
    1.3070   -5.2502    0.0000 C   0  0
    2.6078   -5.9988    0.0000 N   0  0
    2.6109   -7.4996    0.0000 C   0  0
    3.9117   -8.2481    0.0000 C   0  0
    3.9148   -9.7490    0.0000 C   0  0
    5.2157  -10.4975    0.0000 C   0  0
    5.2188  -11.9983    0.0000 N   0  0
    6.5196  -12.7469    0.0000 C   0  0
    6.5227  -14.2477    0.0000 C   0  0
    7.8235  -14.9963    0.0000 C   0  0
    7.8266  -16.4971    0.0000 N   0  0
    9.1274  -17.2457    0.0000 C   0  0
    9.1305  -18.7465    0.0000 C   0  0
   10.4313  -19.4950    0.0000 C   0  0
   10.4344  -20.9959    0.0000 N   0  0
   11.7335  -21.7459    0.0000 C   0  0
   13.0325  -20.9959    0.0000 O   0  0
   11.7335  -23.2459    0.0000 C   0  0
   13.0325  -23.9959    0.0000 C   0  0
   13.0326  -25.4959    0.0000 C   0  0
   11.7336  -26.2459    0.0000 C   0  0
   10.4345  -25.4960    0.0000 C   0  0
    9.1355  -26.2460    0.0000 C   0  0
    7.8364  -25.4960    0.0000 C   0  0
    7.8364  -23.9960    0.0000 C   0  0
    9.1354  -23.2460    0.0000 C   0  0
   10.4345  -23.9960    0.0000 C   0  0
    9.1354  -21.7460    0.0000 C   0  0
    7.8363  -20.9961    0.0000 O   0  0
  1  2  2  0
  2  3  1  0
  3  4  2  0
  4  5  1  0
  5  6  2  0
  6  7  1  0
  7  8  2  0
  8  9  1  0
  9 10  2  0
 10 11  1  0
 11 12  2  0
 12  3  1  0
 12  7  1  0
 11 13  1  0
 13 14  2  0
 13 15  1  0
 15  2  1  0
 15 16  1  0
 16 17  1  0
 17 18  1  0
 18 19  1  0
 19 20  1  0
 20 21  1  0
 21 22  1  0
 22 23  1  0
 23 24  1  0
 24 25  1  0
 25 26  1  0
 26 27  1  0
 27 28  1  0
 28 29  1  0
 29 30  1  0
 30 31  1  0
 31 32  1  0
 32 33  1  0
 33 34  2  0
 33 35  1  0
 35 36  2  0
 36 37  1  0
 37 38  2  0
 38 39  1  0
 39 40  2  0
 40 41  1  0
 41 42  2  0
 42 43  1  0
 43 44  2  0
 44 35  1  0
 44 39  1  0
 43 45  1  0
 45 32  1  0
 45 46  2  0
M  END
> <Smiles>
Br.Br.Br.O=C1c2cccc3cccc(c23)C(=O)N1CCCNCCCCNCCCNCCCN1C(=O)c2cccc3cccc(c23)C1=O

> <ID>
CHEMBL539242

> <standard_value>
111

> <IC50_uM>
0.111

> <Activity>
Yes

> <pIC50>
6.954677021

> <BCI>
1

> <RemovedSalts>
HBr
HBr
HBr

$$$$

  SciTegic03012415362D

 33 37  0  0  1  0            999 V2000
    2.5228   -3.0436    0.0000 C   0  0
    1.2626   -2.2300    0.0000 C   0  0
    1.2990   -0.7500    0.0000 C   0  0  1  0  0  0
    2.5793    0.0316    0.0000 O   0  0
    1.2990    0.7500    0.0000 C   0  0
    2.5981    1.5000    0.0000 O   0  0
    0.0000    1.5000    0.0000 O   0  0
   -1.2990    0.7500    0.0000 C   0  0
   -1.2990   -0.7500    0.0000 C   0  0
    0.0000   -1.5000    0.0000 C   0  0
    0.0000   -3.0000    0.0000 C   0  0
   -1.2990   -3.7500    0.0000 C   0  0
   -2.5981   -3.0000    0.0000 N   0  0
   -2.5981   -1.5000    0.0000 C   0  0
   -3.8971   -0.7500    0.0000 O   0  0
   -3.7124   -4.0030    0.0000 C   0  0  3  0  0  0
   -5.1785   -3.6942    0.0000 C   0  0
   -6.1813   -4.8108    0.0000 C   0  0
   -5.7156   -6.2367    0.0000 C   0  0
   -7.6491   -4.5017    0.0000 O   0  0
   -3.1022   -5.3733    0.0000 C   0  0
   -3.7125   -6.7424    0.0000 C   0  0
   -2.8308   -7.9559    0.0000 C   0  0
   -3.4409   -9.3262    0.0000 C   0  0
   -2.5592  -10.5397    0.0000 C   0  0
   -3.1668  -11.9121    0.0000 N   0  3
   -2.2834  -13.1243    0.0000 O   0  0
   -4.6583  -12.0715    0.0000 O   0  5
   -1.0674  -10.3829    0.0000 C   0  0
   -0.4573   -9.0126    0.0000 C   0  0
   -1.3390   -7.7991    0.0000 C   0  0
   -0.7289   -6.4288    0.0000 N   0  0
   -1.6105   -5.2165    0.0000 C   0  0
  1  2  1  0
  2  3  1  0
  3  4  1  1
  3  5  1  0
  5  6  2  0
  5  7  1  0
  7  8  1  0
  8  9  1  0
  9 10  2  0
 10  3  1  0
 10 11  1  0
 11 12  2  0
 12 13  1  0
 13 14  1  0
 14  9  1  0
 14 15  2  0
 13 16  1  0
 16 17  1  4
 17 18  1  0
 18 19  1  0
 18 20  2  0
 16 21  1  0
 21 22  2  0
 22 23  1  0
 23 24  2  0
 24 25  1  0
 25 26  1  0
 26 27  2  0
 26 28  1  0
 25 29  2  0
 29 30  1  0
 30 31  2  0
 31 23  1  0
 31 32  1  0
 32 33  2  0
 33 21  1  0
 33 12  1  0
M  CHG  2  26   1  28  -1
M  END
> <Smiles>
CC[C@@]1(O)C(=O)OCc2c1cc1n(c2=O)C(CC(C)=O)c2cc3cc([N+](=O)[O-])ccc3nc2-1

> <ID>
CHEMBL44400

> <standard_value>
140

> <IC50_uM>
0.14

> <Activity>
Yes

> <pIC50>
6.853871964

> <BCI>
1

$$$$

  SciTegic03012415362D

 29 33  0  0  0  0            999 V2000
    3.8805   -1.4410    0.0000 O   0  0
    2.4133   -1.7530    0.0000 C   0  0
    1.2990   -0.7500    0.0000 C   0  0
    1.2990    0.7500    0.0000 C   0  0
    0.0000    1.5000    0.0000 C   0  0
   -1.2990    0.7500    0.0000 C   0  0
   -1.2990   -0.7500    0.0000 C   0  0
    0.0000   -1.5000    0.0000 C   0  0
    0.3114   -2.9665    0.0000 C   0  0
    1.8032   -3.1233    0.0000 C   0  0
    2.4135   -4.4923    0.0000 C   0  0
    3.9053   -4.6492    0.0000 C   0  0
    4.5154   -6.0195    0.0000 C   0  0
    3.6337   -7.2330    0.0000 C   0  0
    4.2413   -8.6053    0.0000 N   0  3
    3.3579   -9.8176    0.0000 O   0  0
    5.7328   -8.7647    0.0000 O   0  5
    2.1419   -7.0762    0.0000 C   0  0
    1.5318   -5.7059    0.0000 C   0  0
    0.0400   -5.5491    0.0000 C   0  0
   -0.8417   -6.7626    0.0000 O   0  0
   -0.5701   -4.1788    0.0000 N   0  0
   -2.0630   -4.0243    0.0000 C   0  0
   -2.9439   -5.2394    0.0000 C   0  0
   -4.4368   -5.0850    0.0000 C   0  0
   -5.3172   -6.2994    0.0000 Cl  0  0
   -2.4133    1.7530    0.0000 O   0  0
   -1.8032    3.1233    0.0000 C   0  0
   -0.3115    2.9665    0.0000 O   0  0
  1  2  2  0
  2  3  1  0
  3  4  2  0
  4  5  1  0
  5  6  2  0
  6  7  1  0
  7  8  2  0
  8  3  1  0
  8  9  1  0
  9 10  2  0
 10  2  1  0
 10 11  1  0
 11 12  2  0
 12 13  1  0
 13 14  2  0
 14 15  1  0
 15 16  2  0
 15 17  1  0
 14 18  1  0
 18 19  2  0
 19 11  1  0
 19 20  1  0
 20 21  2  0
 20 22  1  0
 22  9  1  0
 22 23  1  0
 23 24  1  0
 24 25  1  0
 25 26  1  0
  6 27  1  0
 27 28  1  0
 28 29  1  0
 29  5  1  0
M  CHG  2  15   1  17  -1
M  END
> <Smiles>
O=C1c2cc3c(cc2-c2c1c1ccc([N+](=O)[O-])cc1c(=O)n2CCCCl)OCO3

> <ID>
CHEMBL120835

> <standard_value>
148

> <IC50_uM>
0.148

> <Activity>
Yes

> <pIC50>
6.829738285

> <BCI>
1

$$$$

  SciTegic03012415362D

 67 79  0  0  1  0            999 V2000
    3.7759   -7.8970    0.0000 C   0  0
    2.4623   -7.1729    0.0000 C   0  0  2  0  0  0
    2.2760   -5.6845    0.0000 C   0  0
    0.7748   -5.3417    0.0000 C   0  0  1  0  0  0
    2.0786   -4.6001    0.0000 O   0  0
    1.7758   -3.1329    0.0000 C   0  0  1  0  0  0
    2.3947   -1.7666    0.0000 C   0  0
    1.2990   -0.7500    0.0000 C   0  0
    1.2990    0.7500    0.0000 C   0  0  2  0  0  0
    2.5981    1.5000    0.0000 C   0  0
    2.5981    3.0000    0.0000 C   0  0
    1.2990    3.7500    0.0000 C   0  0  1  0  0  0
    1.2990    5.2500    0.0000 C   0  0
    0.0000    6.0000    0.0000 C   0  0
   -0.0001    7.5000    0.0000 N   0  0
   -1.2991    8.2500    0.0000 C   0  0
   -2.5981    7.5000    0.0000 C   0  0
   -2.5981    6.0000    0.0000 N   0  0
   -1.2991    5.2500    0.0000 C   0  0
   -1.2991    3.7500    0.0000 C   0  0
    0.0000    3.0000    0.0000 C   0  0  1  0  0  0
   -1.2991    2.2500    0.0000 C   0  0
    0.0000    1.5000    0.0000 C   0  0  1  0  0  0
   -1.2990    0.7500    0.0000 C   0  0
   -1.2990   -0.7500    0.0000 C   0  0  1  0  0  0
   -2.5981   -1.5000    0.0000 O   0  0
    0.0000   -1.5000    0.0000 C   0  0  1  0  0  0
   -0.0926   -0.0019    0.0000 C   0  0
    0.7416    0.5496    0.0000 O   0  0
    0.2851   -2.9666    0.0000 C   0  0  1  0  0  0
   -0.3335   -4.3309    0.0000 C   0  0  2  0  0  0
   -1.8027   -4.6331    0.0000 C   0  0
   -3.8972    8.2500    0.0000 C   0  0
   -3.8972    9.7500    0.0000 C   0  0  2  0  0  0
   -5.1963   10.4999    0.0000 C   0  0
   -5.1963   11.9999    0.0000 C   0  0
   -3.8972   12.7500    0.0000 C   0  0  1  0  0  0
   -3.8973   14.2500    0.0000 C   0  0
   -4.9929   15.2665    0.0000 C   0  0
   -4.3741   16.6329    0.0000 C   0  0  2  0  0  0
   -4.6409   18.0993    0.0000 O   0  0
   -3.3297   18.8280    0.0000 C   0  0  1  0  0  0
   -2.6201   20.1945    0.0000 O   0  0
   -3.6347   21.2993    0.0000 C   0  0  2  0  0  0
   -4.7748   22.2741    0.0000 C   0  0
   -2.2172   21.7503    0.0000 C   0  0
   -1.0922   20.7580    0.0000 O   0  0
   -4.9989   20.6758    0.0000 C   0  0
   -4.8275   19.1856    0.0000 C   0  0  1  0  0  0
   -5.9498   18.1904    0.0000 O   0  0
   -2.2316   17.8062    0.0000 C   0  0  1  0  0  0
   -0.7570   18.0811    0.0000 C   0  0
   -2.8833   16.4666    0.0000 C   0  0  1  0  0  0
   -1.8918   16.3366    0.0000 O   0  0
   -2.5982   15.0000    0.0000 C   0  0  2  0  0  0
   -1.7841   15.5807    0.0000 C   0  0
   -1.2992   14.2500    0.0000 C   0  0  2  0  0  0
   -0.0001   15.0000    0.0000 O   0  0
   -1.2992   12.7500    0.0000 C   0  0
   -2.5982   12.0000    0.0000 C   0  0  2  0  0  0
   -2.5982   10.5000    0.0000 C   0  0  2  0  0  0
   -1.2992   11.2500    0.0000 C   0  0
   -1.2991    9.7500    0.0000 C   0  0
    0.0788   -6.7153    0.0000 O   0  0
    1.1043   -7.8099    0.0000 C   0  0
    2.2533   -8.7743    0.0000 C   0  0
   -0.3200   -8.2805    0.0000 C   0  0
  2  1  1  1
  2  3  1  0
  4  3  1  6
  4  5  1  0
  6  5  1  6
  6  7  1  0
  7  8  2  0
  8  9  1  0
  9 10  1  1
 10 11  1  0
 12 11  1  6
 12 13  1  0
 13 14  1  0
 14 15  2  0
 15 16  1  0
 16 17  2  0
 17 18  1  0
 18 19  2  0
 19 14  1  0
 19 20  1  0
 20 21  1  0
 21 12  1  0
 21 22  1  6
 21 23  1  0
 23  9  1  0
 23 24  1  6
 24 25  1  0
 25 26  1  6
 25 27  1  0
 27  8  1  0
 27 28  1  6
 28 29  1  0
 30 27  1  6
 30  6  1  0
 30 31  1  0
 31  4  1  0
 31 32  1  1
 17 33  1  0
 34 33  1  6
 34 35  1  0
 35 36  1  0
 37 36  1  1
 37 38  1  0
 38 39  2  0
 40 39  1  6
 40 41  1  0
 42 41  1  6
 42 43  1  0
 43 44  1  0
 44 45  1  6
 44 46  1  0
 46 47  1  0
 44 48  1  0
 48 49  1  0
 49 42  1  0
 49 50  1  6
 42 51  1  0
 51 52  1  1
 51 53  1  0
 53 40  1  0
 53 54  1  1
 53 55  1  0
 55 38  1  0
 55 56  1  6
 55 57  1  0
 57 58  1  6
 57 59  1  0
 60 59  1  6
 60 37  1  0
 60 61  1  0
 61 34  1  0
 61 62  1  6
 61 63  1  0
 63 16  1  0
  4 64  1  0
 64 65  1  0
 65  2  1  0
 65 66  1  0
 65 67  1  0
M  END
> <Smiles>
C[C@@H]1C[C@]2(O[C@H]3C=C4[C@@H]5CC[C@H]6Cc7nc8c(nc7C[C@]6(C)[C@H]5C[C@@H](O)[C@]4(CO)[C@H]3[C@@H]2C)C[C@@H]2CC[C@H]3C4=C[C@@H]5O[C@]6(O[C@](C)(CO)C[C@H]6O)[C@@H](C)[C@]5(O)[C@@]4(C)[C@H](O)C[C@@H]3[C
@@]2(C)C8)OC1(C)C

> <ID>
CHEMBL255256

> <standard_value>
150

> <IC50_uM>
0.15

> <Activity>
Yes

> <pIC50>
6.823908741

> <BCI>
1

$$$$

  SciTegic03012415362D

 67 78  0  0  1  0            999 V2000
  -12.2100   -4.6263    0.0000 C   0  0
  -10.7100   -4.6300    0.0000 C   0  0  2  0  0  0
   -9.8500   -3.4800    0.0000 C   0  0  1  0  0  0
  -10.7400   -2.1600    0.0000 C   0  0
   -9.8500   -0.9700    0.0000 C   0  0
   -8.3500   -1.3800    0.0000 C   0  0
   -7.0100   -0.6600    0.0000 C   0  0  2  0  0  0
   -7.0100    0.8800    0.0000 C   0  0
   -5.6600    1.6000    0.0000 C   0  0
   -4.2800    0.8800    0.0000 C   0  0  1  0  0  0
   -2.9400    1.6000    0.0000 C   0  0
   -1.6900    0.8800    0.0000 C   0  0
   -0.3300    1.6000    0.0000 N   0  0
    1.0000    0.8800    0.0000 C   0  0
    1.0000   -0.6600    0.0000 C   0  0
   -0.3300   -1.3800    0.0000 N   0  0
   -1.6900   -0.6600    0.0000 C   0  0
   -2.9400   -1.3800    0.0000 C   0  0
   -4.2800   -0.6600    0.0000 C   0  0  1  0  0  0
   -4.2891   -2.1600    0.0000 C   0  0
   -5.6600   -1.3800    0.0000 C   0  0  1  0  0  0
   -5.6600   -2.9700    0.0000 C   0  0
   -7.0100   -3.7500    0.0000 C   0  0
   -7.0124   -5.2500    0.0000 O   0  0
   -8.3500   -2.9700    0.0000 C   0  0  2  0  0  0
   -7.4000   -4.4700    0.0000 C   0  0
   -8.2700   -5.9000    0.0000 O   0  0
   -9.7700   -5.9000    0.0000 C   0  0  3  0  0  0
  -11.2694   -5.9410    0.0000 O   0  0
   -8.9242   -7.1102    0.0000 C   0  0  2  0  0  0
   -7.4343   -6.9366    0.0000 O   0  0
   -9.5187   -8.4883    0.0000 C   0  0
   -8.6232   -9.6927    0.0000 C   0  0
   -7.1333   -9.5190    0.0000 C   0  0
   -7.7277  -10.8960    0.0000 C   0  0
   -9.2173  -11.0700    0.0000 O   0  0
    2.3700   -1.3800    0.0000 C   0  0
    3.7200   -0.6600    0.0000 C   0  0  2  0  0  0
    5.0500   -1.3800    0.0000 C   0  0
    6.3800   -0.6100    0.0000 C   0  0
    6.3800    0.8200    0.0000 C   0  0  1  0  0  0
    7.7800    1.5000    0.0000 C   0  0
    9.1300    1.0300    0.0000 C   0  0
   10.0500    2.2500    0.0000 C   0  0  2  0  0  0
   11.5500    2.7600    0.0000 O   0  0
   11.5500    4.3800    0.0000 C   0  0  1  0  0  0
   11.0800    5.7200    0.0000 O   0  0
   12.3600    6.6800    0.0000 C   0  0  2  0  0  0
   13.6776    7.3968    0.0000 C   0  0
   11.0686    7.4216    0.0000 C   0  0
    9.7606    6.6873    0.0000 O   0  0
   13.5800    5.7200    0.0000 C   0  0
   13.0800    4.3800    0.0000 C   0  0  1  0  0  0
   13.9354    3.1478    0.0000 O   0  0
    9.9700    4.7600    0.0000 C   0  0  1  0  0  0
    9.4178    6.1547    0.0000 C   0  0
    9.1300    3.4800    0.0000 C   0  0  1  0  0  0
    8.5201    4.2725    0.0000 O   0  0
    7.7800    3.0300    0.0000 C   0  0  2  0  0  0
    7.8741    4.0256    0.0000 C   0  0
    6.4400    3.7800    0.0000 C   0  0  2  0  0  0
    6.4664    5.2798    0.0000 O   0  0
    5.0400    3.0600    0.0000 C   0  0
    5.0400    1.6600    0.0000 C   0  0  2  0  0  0
    3.7200    0.8800    0.0000 C   0  0  2  0  0  0
    3.6872    2.3796    0.0000 C   0  0
    2.3700    1.6000    0.0000 C   0  0
  2  1  1  6
  2  3  1  0
  3  4  1  1
  4  5  1  0
  5  6  2  0
  6  7  1  0
  7  8  1  6
  8  9  1  0
 10  9  1  1
 10 11  1  0
 11 12  1  0
 12 13  2  0
 13 14  1  0
 14 15  2  0
 15 16  1  0
 16 17  2  0
 17 12  1  0
 17 18  1  0
 18 19  1  0
 19 10  1  0
 19 20  1  1
 19 21  1  0
 21  7  1  0
 21 22  1  1
 22 23  1  0
 23 24  2  0
 23 25  1  0
 25  6  1  0
 25  3  1  0
 25 26  1  1
 26 27  1  0
 27 28  1  0
 28  2  1  0
 28 29  1  4
 28 30  1  0
 30 31  1  6
 30 32  1  0
 32 33  1  0
 33 34  1  0
 33 35  1  0
 33 36  1  0
 15 37  1  0
 38 37  1  1
 38 39  1  0
 39 40  1  0
 41 40  1  6
 41 42  1  0
 42 43  2  0
 44 43  1  1
 44 45  1  0
 46 45  1  1
 46 47  1  0
 47 48  1  0
 48 49  1  1
 48 50  1  0
 50 51  1  0
 48 52  1  0
 52 53  1  0
 53 46  1  0
 53 54  1  1
 46 55  1  0
 55 56  1  6
 55 57  1  0
 57 44  1  0
 57 58  1  6
 57 59  1  0
 59 42  1  0
 59 60  1  1
 59 61  1  0
 61 62  1  1
 61 63  1  0
 64 63  1  1
 64 41  1  0
 64 65  1  0
 65 38  1  0
 65 66  1  1
 65 67  1  0
 67 14  1  0
M  END
> <Smiles>
C[C@@H]1[C@H]2CC=C3[C@@H]4CC[C@H]5Cc6nc7c(nc6C[C@]5(C)[C@H]4CC(=O)[C@@]32COC1(O)[C@H](O)CC(C)(C)O)C[C@@H]1CC[C@H]2C3=C[C@@H]4O[C@]5(O[C@](C)(CO)C[C@H]5O)[C@@H](C)[C@]4(O)[C@@]3(C)[C@H](O)C[C@@H]2[C@@]
1(C)C7

> <ID>
CHEMBL256077

> <standard_value>
150

> <IC50_uM>
0.15

> <Activity>
Yes

> <pIC50>
6.823908741

> <BCI>
1

$$$$

  SciTegic03012415362D

 81 86  0  0  1  0            999 V2000
   -2.1356   -6.8215    0.0000 C   0  0
   -1.1636   -5.6790    0.0000 C   0  0
   -1.6665   -4.2649    0.0000 C   0  0  1  0  0  0
   -3.1451   -4.5174    0.0000 C   0  0
   -4.1030   -3.3632    0.0000 N   0  0  3  0  0  0
   -5.5816   -3.6157    0.0000 C   0  0
   -6.5396   -2.4615    0.0000 C   0  0
   -6.0190   -1.0547    0.0000 C   0  0
   -6.9770    0.0995    0.0000 C   0  0
   -6.4564    1.5063    0.0000 C   0  0
   -7.4173    2.6592    0.0000 O   0  0
   -8.8955    2.4046    0.0000 C   0  0
   -4.9778    1.7588    0.0000 C   0  0
   -4.4540    3.1653    0.0000 O   0  0
   -2.9751    3.4157    0.0000 C   0  0
   -4.0198    0.6045    0.0000 C   0  0
   -4.5404   -0.8022    0.0000 C   0  0
   -3.5824   -1.9564    0.0000 C   0  0  2  0  0  0
   -2.1038   -1.7039    0.0000 C   0  0
   -1.1459   -2.8582    0.0000 C   0  0  2  0  0  0
    0.3330   -2.6024    0.0000 C   0  0
    1.2947   -3.7547    0.0000 C   0  0  2  0  0  0
    1.2938   -5.2548    0.0000 C   0  0
   -0.0058   -6.0039    0.0000 C   0  0
   -0.0067   -7.5039    0.0000 C   0  0
   -1.3085   -8.2508    0.0000 O   0  0
   -2.6060   -7.4981    0.0000 C   0  0
    1.2918   -8.2548    0.0000 C   0  0
    1.2939   -9.7556    0.0000 O   0  0
    2.5935  -10.5046    0.0000 C   0  0
    2.5913   -7.5056    0.0000 C   0  0
    2.5923   -6.0056    0.0000 C   0  0
    3.8918   -5.2565    0.0000 C   0  0
    3.8928   -3.7565    0.0000 C   0  0
    2.5943   -3.0056    0.0000 N   0  0
    2.5984   -1.5048    0.0000 C   0  0
    1.3012   -0.7516    0.0000 O   0  0
    3.8997   -0.7571    0.0000 C   0  0
    3.9039    0.7437    0.0000 C   0  0
    5.2052    1.4914    0.0000 N   0  0
    5.2093    2.9922    0.0000 C   0  0
    3.9121    3.7453    0.0000 O   0  0
    6.5106    3.7398    0.0000 C   0  0  2  0  0  0
    7.8079    2.9867    0.0000 C   0  0
    6.5148    5.2407    0.0000 C   0  0  1  0  0  0
    5.2153    5.9916    0.0000 O   0  0
    3.9155    5.2429    0.0000 C   0  0
    7.8161    5.9883    0.0000 C   0  0  2  0  0  0
    9.1649    5.3617    0.0000 C   0  0
   10.1732    6.4722    0.0000 C   0  0
    9.4287    7.7743    0.0000 C   0  0
    7.9601    7.4686    0.0000 N   0  0
    6.8453    8.4695    0.0000 C   0  0
    5.4196    8.0034    0.0000 O   0  0
    7.1543    9.9382    0.0000 C   0  0
    6.0375   10.9408    0.0000 C   0  0  1  0  0  0
    4.6119   10.4715    0.0000 O   0  0
    4.3047    9.0033    0.0000 C   0  0
    6.3464   12.4094    0.0000 C   0  0  2  0  0  0
    7.7720   12.8787    0.0000 C   0  0  1  0  0  0
    8.8903   11.8790    0.0000 C   0  0
    8.0793   14.3477    0.0000 C   0  0
    9.5041   14.8168    0.0000 C   0  0
    5.2296   13.4120    0.0000 N   0  0
    3.8039   12.9460    0.0000 C   0  0
    5.5386   14.8807    0.0000 C   0  0
    6.9643   15.3468    0.0000 O   0  0
    4.4217   15.8833    0.0000 C   0  0  1  0  0  0
    4.7307   17.3520    0.0000 N   0  0
    3.6139   18.3546    0.0000 C   0  0
    2.1881   17.8885    0.0000 O   0  0
    3.9228   19.8233    0.0000 C   0  0  2  0  0  0
    2.8060   20.8259    0.0000 C   0  0
    3.1148   22.2938    0.0000 C   0  0
    1.3803   20.3598    0.0000 C   0  0
    5.3484   20.2926    0.0000 N   0  0
    5.6556   21.7608    0.0000 C   0  0
    6.4667   19.2928    0.0000 C   0  0
    2.9942   15.4199    0.0000 C   0  0
    1.8792   16.4232    0.0000 C   0  0
    2.6825   13.9527    0.0000 C   0  0
  1  2  1  0
  3  2  1  1
  3  4  1  0
  5  4  1  4
  5  6  1  0
  6  7  1  0
  7  8  1  0
  8  9  2  0
  9 10  1  0
 10 11  1  0
 11 12  1  0
 10 13  2  0
 13 14  1  0
 14 15  1  0
 13 16  1  0
 16 17  2  0
 17  8  1  0
 17 18  1  0
 18  5  1  0
 18 19  1  6
 19 20  1  0
 20  3  1  0
 20 21  1  6
 22 21  1  1
 22 23  1  0
 23 24  2  0
 24 25  1  0
 25 26  1  0
 26 27  1  0
 25 28  2  0
 28 29  1  0
 29 30  1  0
 28 31  1  0
 31 32  2  0
 32 23  1  0
 32 33  1  0
 33 34  1  0
 34 35  1  0
 35 22  1  0
 35 36  1  0
 36 37  2  0
 36 38  1  0
 38 39  1  0
 39 40  1  0
 40 41  1  0
 41 42  2  0
 41 43  1  0
 43 44  1  1
 43 45  1  0
 45 46  1  1
 46 47  1  0
 45 48  1  0
 48 49  1  1
 49 50  1  0
 50 51  1  0
 51 52  1  0
 52 48  1  0
 52 53  1  0
 53 54  2  0
 53 55  1  0
 56 55  1  1
 56 57  1  0
 57 58  1  0
 56 59  1  0
 59 60  1  0
 60 61  1  6
 60 62  1  0
 62 63  1  0
 59 64  1  1
 64 65  1  0
 64 66  1  0
 66 67  2  0
 66 68  1  0
 68 69  1  6
 69 70  1  0
 70 71  2  0
 72 70  1  6
 72 73  1  0
 73 74  1  0
 73 75  1  0
 72 76  1  0
 76 77  1  0
 76 78  1  0
 68 79  1  0
 79 80  1  0
 79 81  1  0
M  END
> <Smiles>
CC[C@H]1CN2CCc3cc(OC)c(OC)cc3[C@@H]2C[C@@H]1C[C@@H]1c2cc(OC)c(OC)cc2CCN1C(=O)CCNC(=O)[C@H](C)[C@@H](OC)[C@@H]1CCCN1C(=O)C[C@@H](OC)[C@H]([C@@H](C)CC)N(C)C(=O)[C@@H](NC(=O)[C@H](C(C)C)N(C)C)C(C)C

> <ID>
CHEMBL4645384

> <standard_value>
185.6

> <IC50_uM>
0.1856

> <Activity>
Yes

> <pIC50>
6.731422028

> <BCI>
1

$$$$

  SciTegic03012415362D

 22 25  0  0  0  0            999 V2000
    3.8926   -3.7566    0.0000 N   0  0
    2.5951   -3.0039    0.0000 C   0  0
    2.5973   -1.5031    0.0000 C   0  0
    1.2990   -0.7500    0.0000 N   0  0
    1.2990    0.7500    0.0000 C   0  0
    0.0000    1.5000    0.0000 C   0  0
   -1.2990    0.7500    0.0000 C   0  0
   -2.5981    1.5000    0.0000 C   0  0
   -3.8971    0.7500    0.0000 C   0  0
   -3.8971   -0.7500    0.0000 C   0  0
   -2.5981   -1.5000    0.0000 C   0  0
   -1.2990   -0.7500    0.0000 C   0  0
    0.0000   -1.5000    0.0000 C   0  0
    0.0000   -3.0000    0.0000 O   0  0
    0.3114    2.9665    0.0000 C   0  0
   -0.6924    4.0811    0.0000 O   0  0
    1.8032    3.1233    0.0000 C   0  0
    2.6837    4.3363    0.0000 C   0  0
    4.1755    4.1795    0.0000 C   0  0
    4.7856    2.8092    0.0000 C   0  0
    3.9040    1.5957    0.0000 C   0  0
    2.4133    1.7530    0.0000 C   0  0
  1  2  1  0
  2  3  1  0
  3  4  1  0
  4  5  1  0
  5  6  2  0
  6  7  1  0
  7  8  2  0
  8  9  1  0
  9 10  2  0
 10 11  1  0
 11 12  2  0
 12  7  1  0
 12 13  1  0
 13  4  1  0
 13 14  2  0
  6 15  1  0
 15 16  2  0
 15 17  1  0
 17 18  2  0
 18 19  1  0
 19 20  2  0
 20 21  1  0
 21 22  2  0
 22 17  1  0
 22  5  1  0
M  END
> <Smiles>
Cl.NCCn1c2c(c3ccccc3c1=O)C(=O)c1ccccc1-2

> <ID>
CHEMBL188130

> <standard_value>
210

> <IC50_uM>
0.21

> <Activity>
Yes

> <pIC50>
6.677780705

> <BCI>
1

> <RemovedSalts>
HCl

$$$$

  SciTegic03012415362D

 36 39  0  0  1  0            999 V2000
   -3.2625   -8.8345    0.0000 C   0  0
   -1.7962   -9.1509    0.0000 C   0  0
   -2.8035  -10.2623    0.0000 C   0  0
   -1.3375  -10.5790    0.0000 O   0  0
   -0.7889   -8.0383    0.0000 C   0  0
   -1.2479   -6.6094    0.0000 C   0  0
   -0.2405   -5.4968    0.0000 C   0  0
    1.2257   -5.8132    0.0000 O   0  0
   -0.6995   -4.0679    0.0000 C   0  0  2  0  0  0
   -1.0057   -3.1159    0.0000 C   0  0
   -2.1657   -3.7515    0.0000 O   0  0
    0.3061   -2.9572    0.0000 C   0  0  1  0  0  0
    1.7979   -3.1140    0.0000 C   0  0  2  0  0  0
    2.5479   -4.4130    0.0000 O   0  0
    2.4080   -1.7436    0.0000 C   0  0
    1.2990   -0.7500    0.0000 C   0  0  1  0  0  0
    2.6686   -0.1382    0.0000 C   0  0
    1.2990    0.7500    0.0000 C   0  0  2  0  0  0
    2.5981    1.5000    0.0000 C   0  0
    2.5981    3.0000    0.0000 C   0  0
    1.2990    3.7500    0.0000 C   0  0
    0.0000    3.0000    0.0000 C   0  0  1  0  0  0
   -1.2991    3.7500    0.0000 C   0  0
   -1.2991    5.2500    0.0000 C   0  0
    0.0000    6.0000    0.0000 C   0  0
   -0.0001    7.5000    0.0000 O   0  0
    1.2990    5.2500    0.0000 C   0  0
    2.5800    4.4696    0.0000 C   0  0
    1.2638    6.7496    0.0000 C   0  0
    0.0000    1.5000    0.0000 C   0  0  1  0  0  0
   -1.2991    2.2500    0.0000 C   0  0
   -1.2990    0.7500    0.0000 C   0  0
   -2.5981    1.5000    0.0000 O   0  0
   -1.2990   -0.7500    0.0000 C   0  0
    0.0000   -1.5000    0.0000 C   0  0  2  0  0  0
   -0.8097   -2.0868    0.0000 C   0  0
  1  2  1  0
  2  3  1  0
  2  4  1  0
  2  5  1  0
  5  6  2  0
  6  7  1  0
  7  8  2  0
  7  9  1  0
  9 10  1  1
  9 11  1  0
 12  9  1  6
 12 13  1  0
 13 14  1  1
 13 15  1  0
 15 16  1  0
 16 17  1  1
 16 18  1  0
 18 19  1  1
 19 20  1  0
 20 21  2  0
 21 22  1  0
 22 23  1  6
 23 24  1  0
 24 25  1  0
 25 26  2  0
 25 27  1  0
 27 21  1  0
 27 28  1  0
 27 29  1  0
 22 30  1  0
 30 18  1  0
 30 31  1  6
 30 32  1  0
 32 33  2  0
 32 34  1  0
 34 35  1  0
 35 12  1  0
 35 16  1  0
 35 36  1  6
M  END
> <Smiles>
CC(C)(O)/C=C/C(=O)[C@](C)(O)[C@H]1[C@H](O)C[C@@]2(C)[C@@H]3CC=C4[C@@H](CCC(=O)C4(C)C)[C@]3(C)C(=O)C[C@]12C

> <ID>
CHEMBL493647

> <standard_value>
210

> <IC50_uM>
0.21

> <Activity>
Yes

> <pIC50>
6.677780705

> <BCI>
1

$$$$

  SciTegic03012415362D

 21 23  0  0  0  0            999 V2000
    2.5875   -5.9994    0.0000 C   0  0
    3.8888   -5.2533    0.0000 O   0  0
    3.8943   -3.7525    0.0000 C   0  0
    5.1945   -3.0045    0.0000 C   0  0
    5.1969   -1.5045    0.0000 C   0  0
    3.8991   -0.7525    0.0000 C   0  0
    2.5987   -1.5004    0.0000 C   0  0
    1.2990   -0.7500    0.0000 C   0  0
    1.2990    0.7500    0.0000 C   0  0
    0.0000    1.5000    0.0000 C   0  0
    0.0000    3.0000    0.0000 O   0  0
   -1.2990    0.7500    0.0000 C   0  0
   -2.5981    1.5000    0.0000 C   0  0
   -3.8971    0.7500    0.0000 C   0  0
   -5.1984    1.4977    0.0000 O   0  0
   -6.4964    0.7459    0.0000 C   0  0
   -3.8971   -0.7500    0.0000 C   0  0
   -2.5981   -1.5000    0.0000 C   0  0
   -1.2990   -0.7500    0.0000 C   0  0
    0.0000   -1.5000    0.0000 N   0  0
    2.5965   -3.0004    0.0000 C   0  0
  1  2  1  0
  2  3  1  0
  3  4  2  0
  4  5  1  0
  5  6  2  0
  6  7  1  0
  7  8  1  0
  8  9  2  0
  9 10  1  0
 10 11  1  0
 10 12  2  0
 12 13  1  0
 13 14  2  0
 14 15  1  0
 15 16  1  0
 14 17  1  0
 17 18  2  0
 18 19  1  0
 19 12  1  0
 19 20  2  0
 20  8  1  0
  7 21  2  0
 21  3  1  0
M  END
> <Smiles>
COc1cccc(-c2cc(O)c3cc(OC)ccc3n2)c1

> <ID>
CHEMBL14412

> <standard_value>
229.09

> <IC50_uM>
0.22909

> <Activity>
Yes

> <pIC50>
6.639993868

> <BCI>
1

$$$$

  SciTegic03012415362D

 25 27  0  0  0  0            999 V2000
    0.2919  -10.9165    0.0000 C   0  0
    1.7919  -10.9187    0.0000 O   0  0
    2.5450   -9.6205    0.0000 C   0  0
    1.7951   -8.3214    0.0000 C   0  0
    2.5451   -7.0223    0.0000 C   0  0
    1.7974   -5.7210    0.0000 C   0  0
    0.2966   -5.7184    0.0000 C   0  0
   -1.2034   -5.7158    0.0000 N   0  0
    2.5497   -4.4224    0.0000 C   0  0
    1.8032   -3.1233    0.0000 C   0  0
    2.4133   -1.7530    0.0000 C   0  0
    1.2990   -0.7500    0.0000 C   0  0
    1.2990    0.7500    0.0000 C   0  0
    0.0000    1.5000    0.0000 C   0  0
   -1.2990    0.7500    0.0000 C   0  0
   -1.2990   -0.7500    0.0000 C   0  0
    0.0000   -1.5000    0.0000 C   0  0
    0.3114   -2.9665    0.0000 O   0  0
    4.0452   -7.0225    0.0000 C   0  0
    4.7951   -8.3215    0.0000 C   0  0
    6.2959   -8.3185    0.0000 O   0  0
    7.0441   -7.0184    0.0000 C   0  0
    4.0450   -9.6205    0.0000 C   0  0
    4.7927  -10.9219    0.0000 O   0  0
    4.0408  -12.2198    0.0000 C   0  0
  1  2  1  0
  2  3  1  0
  3  4  2  0
  4  5  1  0
  5  6  1  0
  6  7  1  0
  7  8  3  0
  6  9  2  0
  9 10  1  0
 10 11  2  0
 11 12  1  0
 12 13  2  0
 13 14  1  0
 14 15  2  0
 15 16  1  0
 16 17  2  0
 17 12  1  0
 17 18  1  0
 18 10  1  0
  5 19  2  0
 19 20  1  0
 20 21  1  0
 21 22  1  0
 20 23  2  0
 23  3  1  0
 23 24  1  0
 24 25  1  0
M  END
> <Smiles>
COc1cc(/C(C#N)=C/c2cc3ccccc3o2)cc(OC)c1OC

> <ID>
CHEMBL3409053

> <standard_value>
247

> <IC50_uM>
0.247

> <Activity>
Yes

> <pIC50>
6.607303047

> <BCI>
1

$$$$

  SciTegic03012415362D

 30 32  0  0  0  0            999 V2000
    6.4964    0.7591    0.0000 O   0  0
    6.4990   -0.7409    0.0000 C   0  0
    5.2003   -1.4932    0.0000 N   0  0
    3.8990   -0.7455    0.0000 N   0  0
    2.6003   -1.4977    0.0000 C   0  0
    1.2990   -0.7500    0.0000 C   0  0
    1.2990    0.7500    0.0000 C   0  0
    0.0000    1.5000    0.0000 C   0  0
    0.0000    3.0000    0.0000 Cl  0  0
   -1.2990    0.7500    0.0000 C   0  0
   -1.2990   -0.7500    0.0000 C   0  0
    0.0000   -1.5000    0.0000 C   0  0
    0.0000   -3.0000    0.0000 O   0  0
    7.8003   -1.4887    0.0000 C   0  0
    7.8004   -2.9887    0.0000 C   0  0
    9.0995   -3.7387    0.0000 C   0  0
   10.3985   -2.9887    0.0000 C   0  0
   10.3984   -1.4887    0.0000 C   0  0
    9.0994   -0.7387    0.0000 C   0  0
    9.1025    0.7621    0.0000 N   0  0
   10.4033    1.5107    0.0000 C   0  0
   10.4086    3.0107    0.0000 C   0  0
   11.7102    3.7562    0.0000 C   0  0
   13.0067    3.0017    0.0000 N   0  0
   13.0015    1.5017    0.0000 C   0  0
   14.2986    0.7468    0.0000 C   0  0
   15.6007    1.4915    0.0000 F   0  0
   14.2929   -0.7532    0.0000 F   0  0
   15.5947   -0.0083    0.0000 F   0  0
   11.6998    0.7562    0.0000 C   0  0
  1  2  2  0
  2  3  1  0
  3  4  1  0
  4  5  2  0
  5  6  1  0
  6  7  2  0
  7  8  1  0
  8  9  1  0
  8 10  2  0
 10 11  1  0
 11 12  2  0
 12  6  1  0
 12 13  1  0
  2 14  1  0
 14 15  2  0
 15 16  1  0
 16 17  2  0
 17 18  1  0
 18 19  2  0
 19 14  1  0
 19 20  1  0
 20 21  1  0
 21 22  2  0
 22 23  1  0
 23 24  2  0
 24 25  1  0
 25 26  1  0
 26 27  1  0
 26 28  1  0
 26 29  1  0
 25 30  2  0
 30 21  1  0
M  END
> <Smiles>
O=C(N/N=C/c1cc(Cl)ccc1O)c1ccccc1Nc1ccnc(C(F)(F)F)c1

> <ID>
CHEMBL2440592

> <standard_value>
251.19

> <IC50_uM>
0.25119

> <Activity>
Yes

> <pIC50>
6.599997654

> <BCI>
1

$$$$

  SciTegic03012415362D

 23 26  0  0  0  0            999 V2000
    2.5814   -7.4998    0.0000 C   0  0
    2.5868   -5.9998    0.0000 C   0  0
    3.8888   -5.2533    0.0000 O   0  0
    3.8943   -3.7525    0.0000 C   0  0
    5.1945   -3.0045    0.0000 C   0  0
    5.1969   -1.5045    0.0000 C   0  0
    3.8991   -0.7525    0.0000 C   0  0
    2.5987   -1.5004    0.0000 C   0  0
    1.2990   -0.7500    0.0000 C   0  0
    1.2990    0.7500    0.0000 C   0  0
    0.0000    1.5000    0.0000 C   0  0
    0.0000    3.0000    0.0000 O   0  0
   -1.2990    0.7500    0.0000 C   0  0
   -2.5981    1.5000    0.0000 C   0  0
   -3.8971    0.7500    0.0000 C   0  0
   -3.8971   -0.7500    0.0000 C   0  0
   -2.5981   -1.5000    0.0000 C   0  0
   -1.2990   -0.7500    0.0000 C   0  0
    0.0000   -1.5000    0.0000 N   0  0
   -5.3228   -1.2136    0.0000 O   0  0
   -6.2045    0.0000    0.0000 C   0  0
   -5.3229    1.2135    0.0000 O   0  0
    2.5965   -3.0004    0.0000 C   0  0
  1  2  1  0
  2  3  1  0
  3  4  1  0
  4  5  2  0
  5  6  1  0
  6  7  2  0
  7  8  1  0
  8  9  1  0
  9 10  2  0
 10 11  1  0
 11 12  1  0
 11 13  2  0
 13 14  1  0
 14 15  2  0
 15 16  1  0
 16 17  2  0
 17 18  1  0
 18 13  1  0
 18 19  2  0
 19  9  1  0
 16 20  1  0
 20 21  1  0
 21 22  1  0
 22 15  1  0
  8 23  2  0
 23  4  1  0
M  END
> <Smiles>
CCOc1cccc(-c2cc(O)c3cc4c(cc3n2)OCO4)c1

> <ID>
CHEMBL114883

> <standard_value>
269.15

> <IC50_uM>
0.26915

> <Activity>
Yes

> <pIC50>
6.570005616

> <BCI>
1

$$$$

  SciTegic03012415362D

 29 33  0  0  1  0            999 V2000
    3.8983   -0.7459    0.0000 C   0  0
    2.6003   -1.4977    0.0000 O   0  0
    1.2990   -0.7500    0.0000 C   0  0
    1.2990    0.7500    0.0000 C   0  0
    0.0000    1.5000    0.0000 C   0  0
    0.0000    3.0000    0.0000 C   0  0
   -1.2991    3.7500    0.0000 C   0  0
   -2.5981    3.0000    0.0000 C   0  0
   -3.8971    3.7500    0.0000 C   0  0
   -5.1962    3.0000    0.0000 C   0  0
   -6.4944    3.7530    0.0000 O   0  0
   -6.4923    5.2530    0.0000 C   0  0
   -5.1962    1.5000    0.0000 C   0  0
   -6.4944    0.7469    0.0000 O   0  0
   -6.4922   -0.7531    0.0000 C   0  0
   -3.8971    0.7500    0.0000 C   0  0
   -2.5981    1.5000    0.0000 C   0  0
   -1.2990    0.7500    0.0000 C   0  0
   -1.2990   -0.7500    0.0000 C   0  0
    0.0000   -1.5000    0.0000 C   0  0
   -0.0031   -3.0008    0.0000 O   0  0
   -1.3032   -3.7490    0.0000 C   0  0
   -1.2991    5.2500    0.0000 C   0  0
    0.0000    6.0000    0.0000 N   0  0  3  0  0  0
    0.3114    7.4665    0.0000 C   0  0
    1.8032    7.6233    0.0000 C   0  0
    2.4133    6.2530    0.0000 C   0  0
    1.2990    5.2500    0.0000 C   0  0  2  0  0  0
    1.2990    3.7500    0.0000 C   0  0
  1  2  1  0
  2  3  1  0
  3  4  2  0
  4  5  1  0
  5  6  2  0
  6  7  1  0
  7  8  2  0
  8  9  1  0
  9 10  2  0
 10 11  1  0
 11 12  1  0
 10 13  1  0
 13 14  1  0
 14 15  1  0
 13 16  2  0
 16 17  1  0
 17  8  1  0
 17 18  2  0
 18  5  1  0
 18 19  1  0
 19 20  2  0
 20  3  1  0
 20 21  1  0
 21 22  1  0
  7 23  1  0
 24 23  1  4
 24 25  1  0
 25 26  1  0
 26 27  1  0
 28 27  1  6
 28 24  1  0
 28 29  1  0
 29  6  1  0
M  END
> <Smiles>
COc1cc2c3c(c4cc(OC)c(OC)cc4c2cc1OC)CN1CCC[C@@H]1C3

> <ID>
CHEMBL258137

> <standard_value>
270

> <IC50_uM>
0.27

> <Activity>
Yes

> <pIC50>
6.568636236

> <BCI>
1

$$$$

  SciTegic03012415362D

 79 84  0  0  1  0            999 V2000
    2.7142   -0.6536    0.0000 C   0  0
    1.4162   -1.4055    0.0000 C   0  0
    0.1149   -0.6578    0.0000 C   0  0  1  0  0  0
   -0.3981    0.7518    0.0000 C   0  0
   -1.8753    1.0123    0.0000 N   0  0  3  0  0  0
   -2.3884    2.4218    0.0000 C   0  0
   -3.8656    2.6823    0.0000 C   0  0
   -4.8297    1.5332    0.0000 C   0  0
   -6.3070    1.7936    0.0000 C   0  0
   -7.2711    0.6446    0.0000 C   0  0
   -8.7486    0.9082    0.0000 O   0  0
   -9.2597    2.3185    0.0000 C   0  0
   -6.7581   -0.7650    0.0000 C   0  0
   -7.7204   -1.9167    0.0000 O   0  0
   -7.2054   -3.3255    0.0000 C   0  0
   -5.2809   -1.0254    0.0000 C   0  0
   -4.3167    0.1236    0.0000 C   0  0
   -2.8395   -0.1368    0.0000 C   0  0  2  0  0  0
   -2.3265   -1.5464    0.0000 C   0  0
   -0.8492   -1.8068    0.0000 C   0  0  2  0  0  0
   -0.8523   -3.3077    0.0000 C   0  0
    0.4454   -4.0616    0.0000 C   0  0  2  0  0  0
   -0.0685   -5.4708    0.0000 C   0  0
   -1.5459   -5.7303    0.0000 C   0  0
   -2.0598   -7.1395    0.0000 C   0  0
   -3.5385   -7.3962    0.0000 O   0  0
   -4.5003   -6.2451    0.0000 C   0  0
   -1.0964   -8.2892    0.0000 C   0  0
   -1.6077   -9.7003    0.0000 O   0  0
   -0.6426  -10.8486    0.0000 C   0  0
    0.3810   -8.0297    0.0000 C   0  0
    0.8950   -6.6205    0.0000 C   0  0
    2.3723   -6.3610    0.0000 C   0  0
    2.8863   -4.9518    0.0000 C   0  0
    1.9229   -3.8021    0.0000 N   0  0
    2.4401   -2.3932    0.0000 C   0  0
    3.9186   -2.1357    0.0000 C   0  0
    4.4358   -0.7268    0.0000 N   0  0
    5.9144   -0.4693    0.0000 C   0  0
    6.8758   -1.6207    0.0000 O   0  0
    6.4316    0.9396    0.0000 C   0  0  2  0  0  0
    5.4702    2.0910    0.0000 C   0  0
    7.9101    1.1971    0.0000 C   0  0  1  0  0  0
    8.8697    0.0431    0.0000 O   0  0
    8.3512   -1.3645    0.0000 C   0  0
    8.4273    2.6060    0.0000 C   0  0  2  0  0  0
    7.5819    3.8296    0.0000 C   0  0
    8.5062    5.0110    0.0000 C   0  0
    9.9154    4.4970    0.0000 C   0  0
    9.8620    2.9979    0.0000 N   0  0
   11.0368    2.0681    0.0000 C   0  0
   10.8181    0.5841    0.0000 O   0  0
   12.4322    2.6206    0.0000 C   0  0
   13.6090    1.6892    0.0000 C   0  0  1  0  0  0
   13.3872    0.2048    0.0000 O   0  0
   11.9919   -0.3459    0.0000 C   0  0
   15.0044    2.2417    0.0000 C   0  0  2  0  0  0
   15.2262    3.7260    0.0000 C   0  0  1  0  0  0
   14.0520    4.6594    0.0000 C   0  0
   16.6222    4.2770    0.0000 C   0  0
   16.8439    5.7605    0.0000 C   0  0
   16.1812    1.3102    0.0000 N   0  0
   15.9626   -0.1738    0.0000 C   0  0
   17.5766    1.8627    0.0000 C   0  0
   17.7952    3.3467    0.0000 O   0  0
   18.7534    0.9312    0.0000 C   0  0  1  0  0  0
   20.1488    1.4837    0.0000 N   0  0
   21.3256    0.5523    0.0000 C   0  0
   21.1070   -0.9317    0.0000 O   0  0
   22.7210    1.1048    0.0000 C   0  0  2  0  0  0
   23.8978    0.1733    0.0000 C   0  0
   25.2925    0.7255    0.0000 C   0  0
   23.6792   -1.3107    0.0000 C   0  0
   22.9428    2.5891    0.0000 N   0  0
   24.3381    3.1398    0.0000 C   0  0
   21.7686    3.5225    0.0000 C   0  0
   18.5377   -0.5540    0.0000 C   0  0
   19.7149   -1.4837    0.0000 C   0  0
   17.1442   -1.1091    0.0000 C   0  0
  1  2  1  0
  3  2  1  6
  3  4  1  0
  5  4  1  4
  5  6  1  0
  6  7  1  0
  7  8  1  0
  8  9  2  0
  9 10  1  0
 10 11  1  0
 11 12  1  0
 10 13  2  0
 13 14  1  0
 14 15  1  0
 13 16  1  0
 16 17  2  0
 17  8  1  0
 17 18  1  0
 18  5  1  0
 18 19  1  1
 19 20  1  0
 20  3  1  0
 20 21  1  1
 22 21  1  1
 22 23  1  0
 23 24  2  0
 24 25  1  0
 25 26  1  0
 26 27  1  0
 25 28  2  0
 28 29  1  0
 29 30  1  0
 28 31  1  0
 31 32  2  0
 32 23  1  0
 32 33  1  0
 33 34  1  0
 34 35  1  0
 35 22  1  0
 35 36  1  0
 36 37  1  0
 37 38  1  0
 38 39  1  0
 39 40  2  0
 39 41  1  0
 41 42  1  6
 41 43  1  0
 43 44  1  6
 44 45  1  0
 43 46  1  0
 46 47  1  6
 47 48  1  0
 48 49  1  0
 49 50  1  0
 50 46  1  0
 50 51  1  0
 51 52  2  0
 51 53  1  0
 54 53  1  6
 54 55  1  0
 55 56  1  0
 54 57  1  0
 57 58  1  0
 58 59  1  1
 58 60  1  0
 60 61  1  0
 57 62  1  6
 62 63  1  0
 62 64  1  0
 64 65  2  0
 64 66  1  0
 66 67  1  1
 67 68  1  0
 68 69  2  0
 70 68  1  1
 70 71  1  0
 71 72  1  0
 71 73  1  0
 70 74  1  0
 74 75  1  0
 74 76  1  0
 66 77  1  0
 77 78  1  0
 77 79  1  0
M  END
> <Smiles>
CC[C@H]1CN2CCc3cc(OC)c(OC)cc3[C@@H]2C[C@@H]1C[C@@H]1c2cc(OC)c(OC)cc2CCN1CCNC(=O)[C@H](C)[C@@H](OC)[C@@H]1CCCN1C(=O)C[C@@H](OC)[C@H]([C@@H](C)CC)N(C)C(=O)[C@@H](NC(=O)[C@H](C(C)C)N(C)C)C(C)C

> <ID>
CHEMBL4633893

> <standard_value>
271.8

> <IC50_uM>
0.2718

> <Activity>
Yes

> <pIC50>
6.565750548

> <BCI>
1

$$$$

  SciTegic03012415362D

 50 53  0  0  1  0            999 V2000
  -28.9789   -4.9268    0.0000 C   0  0
  -27.7619   -4.0500    0.0000 O   0  0
  -26.3928   -4.6650    0.0000 C   0  0
  -26.2415   -6.1574    0.0000 O   0  0
  -25.1751   -3.7877    0.0000 N   0  0
  -23.8061   -4.4027    0.0000 C   0  0
  -22.5884   -3.5254    0.0000 C   0  0
  -21.2194   -4.1404    0.0000 C   0  0
  -21.0668   -5.6309    0.0000 C   0  0
  -19.7714   -6.3871    0.0000 N   0  0
  -20.1048   -7.8365    0.0000 C   0  0
  -19.1082   -8.9587    0.0000 C   0  0
  -19.5809  -10.3832    0.0000 C   0  0
  -18.5843  -11.5053    0.0000 C   0  0
  -19.0569  -12.9298    0.0000 C   0  0
  -20.5267  -13.2336    0.0000 C   0  0
  -21.5238  -12.1130    0.0000 O   0  0
  -20.9993  -14.6581    0.0000 O   0  0
  -22.4686  -14.9618    0.0000 C   0  0  2  0  0  0
  -22.9634  -16.4221    0.0000 C   0  0
  -24.4756  -16.7141    0.0000 C   0  0  1  0  0  0
  -24.9626  -18.1626    0.0000 C   0  0
  -26.6561  -18.3184    0.0000 C   0  0  2  0  0  0
  -27.3426  -16.9807    0.0000 O   0  0
  -26.5303  -15.7197    0.0000 C   0  0
  -27.7603  -19.5472    0.0000 C   0  0
  -29.2166  -19.0720    0.0000 C   0  0  1  0  0  0
  -28.7218  -17.6117    0.0000 O   0  0
  -29.7567  -16.4572    0.0000 C   0  0  1  0  0  0
  -31.2453  -16.7647    0.0000 C   0  0
  -31.7205  -18.2210    0.0000 C   0  0
  -30.7072  -19.3697    0.0000 C   0  0  2  0  0  0
  -31.1867  -20.7910    0.0000 C   0  0
  -30.3963  -15.1904    0.0000 C   0  0
  -29.5652  -13.8751    0.0000 C   0  0  2  0  0  0
  -30.2581  -12.5441    0.0000 C   0  0
  -31.7574  -12.4774    0.0000 C   0  0
  -32.4502  -11.1461    0.0000 C   0  0
  -33.9495  -11.0794    0.0000 C   0  0
  -34.6420   -9.7488    0.0000 C   0  0
  -34.7561  -12.3441    0.0000 C   0  0
  -28.0528  -13.9302    0.0000 O   0  0
  -27.2038  -12.6520    0.0000 C   0  0
  -27.8726  -11.3094    0.0000 O   0  0
  -25.6735  -12.7444    0.0000 C   0  0
  -24.9941  -14.1051    0.0000 C   0  0  1  0  0  0
  -23.4917  -13.8151    0.0000 C   0  0
  -25.4889  -15.5654    0.0000 O   0  0
  -21.5828   -8.0025    0.0000 C   0  0
  -22.1863   -6.6293    0.0000 O   0  0
  1  2  1  0
  2  3  1  0
  3  4  2  0
  3  5  1  0
  5  6  1  0
  6  7  1  0
  7  8  2  0
  8  9  1  0
  9 10  2  0
 10 11  1  0
 11 12  1  0
 12 13  1  0
 13 14  1  0
 14 15  2  0
 15 16  1  0
 16 17  2  0
 16 18  1  0
 19 18  1  6
 19 20  1  0
 21 20  1  1
 21 22  1  0
 22 23  1  0
 23 24  1  1
 24 25  1  0
 23 26  1  0
 27 26  1  6
 27 28  1  0
 29 28  1  1
 29 30  1  0
 30 31  1  0
 31 32  1  0
 32 27  1  0
 32 33  1  1
 29 34  1  0
 34 35  1  0
 35 36  1  6
 36 37  2  0
 37 38  1  0
 38 39  1  0
 39 40  1  0
 39 41  1  0
 35 42  1  0
 42 43  1  0
 43 44  2  0
 43 45  1  0
 46 45  1  1
 46 47  1  0
 47 19  1  0
 46 48  1  0
 48 21  1  0
 11 49  2  0
 49 50  1  0
 50  9  1  0
M  END
> <Smiles>
COC(=O)NC/C=C\c1nc(CC/C=C\C(=O)O[C@@H]2C[C@H]3C[C@H](OC)C[C@H]4O[C@@H](CC[C@@H]4C)C[C@H](/C=C/CC(C)C)OC(=O)C[C@@H](C2)O3)co1

> <ID>
CHEMBL1222318

> <standard_value>
280

> <IC50_uM>
0.28

> <Activity>
Yes

> <pIC50>
6.552841969

> <BCI>
1

$$$$

  SciTegic03012415362D

 33 37  0  0  1  0            999 V2000
    2.5228   -3.0436    0.0000 C   0  0
    1.2626   -2.2300    0.0000 C   0  0
    1.2990   -0.7500    0.0000 C   0  0  1  0  0  0
    2.5793    0.0316    0.0000 O   0  0
    1.2990    0.7500    0.0000 C   0  0
    2.5981    1.5000    0.0000 O   0  0
    0.0000    1.5000    0.0000 O   0  0
   -1.2990    0.7500    0.0000 C   0  0
   -1.2990   -0.7500    0.0000 C   0  0
    0.0000   -1.5000    0.0000 C   0  0
    0.0000   -3.0000    0.0000 C   0  0
   -1.2990   -3.7500    0.0000 C   0  0
   -2.5981   -3.0000    0.0000 N   0  0
   -2.5981   -1.5000    0.0000 C   0  0
   -3.8971   -0.7500    0.0000 O   0  0
   -3.7124   -4.0030    0.0000 C   0  0  3  0  0  0
   -5.1785   -3.6942    0.0000 O   0  0
   -6.1813   -4.8108    0.0000 C   0  0
   -7.6499   -4.5015    0.0000 C   0  0
   -8.6522   -5.6175    0.0000 F   0  0
   -3.1022   -5.3733    0.0000 C   0  0
   -3.7125   -6.7424    0.0000 C   0  0
   -2.8308   -7.9559    0.0000 C   0  0
   -3.4409   -9.3262    0.0000 C   0  0
   -4.9332   -9.4862    0.0000 N   0  3
   -5.5413  -10.8574    0.0000 O   0  0
   -5.8170   -8.2742    0.0000 O   0  5
   -2.5592  -10.5397    0.0000 C   0  0
   -1.0674  -10.3829    0.0000 C   0  0
   -0.4573   -9.0126    0.0000 C   0  0
   -1.3390   -7.7991    0.0000 C   0  0
   -0.7289   -6.4288    0.0000 N   0  0
   -1.6105   -5.2165    0.0000 C   0  0
  1  2  1  0
  2  3  1  0
  3  4  1  1
  3  5  1  0
  5  6  2  0
  5  7  1  0
  7  8  1  0
  8  9  1  0
  9 10  2  0
 10  3  1  0
 10 11  1  0
 11 12  2  0
 12 13  1  0
 13 14  1  0
 14  9  1  0
 14 15  2  0
 13 16  1  0
 16 17  1  4
 17 18  1  0
 18 19  1  0
 19 20  1  0
 16 21  1  0
 21 22  2  0
 22 23  1  0
 23 24  2  0
 24 25  1  0
 25 26  2  0
 25 27  1  0
 24 28  1  0
 28 29  2  0
 29 30  1  0
 30 31  2  0
 31 23  1  0
 31 32  1  0
 32 33  2  0
 33 21  1  0
 33 12  1  0
M  CHG  2  25   1  27  -1
M  END
> <Smiles>
CC[C@@]1(O)C(=O)OCc2c1cc1n(c2=O)C(OCCF)c2cc3c([N+](=O)[O-])cccc3nc2-1

> <ID>
CHEMBL333561

> <standard_value>
310

> <IC50_uM>
0.31

> <Activity>
Yes

> <pIC50>
6.508638306

> <BCI>
1

$$$$

  SciTegic03012415362D

 27 29  0  0  0  0            999 V2000
    9.6933   -4.1283    0.0000 C   0  0
    8.8153   -2.9121    0.0000 C   0  0
    7.3222   -3.0635    0.0000 N   0  0
    6.4437   -1.8466    0.0000 C   0  0
    7.0583   -0.4784    0.0000 O   0  0
    4.9531   -1.9978    0.0000 C   0  0
    4.2010   -3.2956    0.0000 N   0  0
    2.7343   -2.9815    0.0000 N   0  0
    2.5987   -1.5004    0.0000 C   0  0
    1.2990   -0.7500    0.0000 C   0  0
    1.2990    0.7500    0.0000 C   0  0
    0.0000    1.5000    0.0000 C   0  0
    0.0000    3.0000    0.0000 Cl  0  0
   -1.2990    0.7500    0.0000 C   0  0
   -2.5981    1.5000    0.0000 O   0  0
   -1.2990   -0.7500    0.0000 C   0  0
    0.0000   -1.5000    0.0000 C   0  0
    0.0000   -3.0000    0.0000 O   0  0
    3.9511   -0.8815    0.0000 C   0  0
    4.2567    0.5878    0.0000 C   0  0
    3.2235    1.6679    0.0000 C   0  0
    3.6446    3.1076    0.0000 C   0  0
    5.1019    3.4627    0.0000 C   0  0
    5.5263    4.9023    0.0000 O   0  0
    6.9841    5.2554    0.0000 C   0  0
    6.1382    2.3782    0.0000 C   0  0
    5.7171    0.9385    0.0000 C   0  0
  1  2  1  0
  2  3  1  0
  3  4  1  0
  4  5  2  0
  4  6  1  0
  6  7  2  0
  7  8  1  0
  8  9  1  0
  9 10  1  0
 10 11  2  0
 11 12  1  0
 12 13  1  0
 12 14  2  0
 14 15  1  0
 14 16  1  0
 16 17  2  0
 17 10  1  0
 17 18  1  0
  9 19  2  0
 19  6  1  0
 19 20  1  0
 20 21  2  0
 21 22  1  0
 22 23  2  0
 23 24  1  0
 24 25  1  0
 23 26  1  0
 26 27  2  0
 27 20  1  0
M  END
> <Smiles>
CCNC(=O)c1n[nH]c(-c2cc(Cl)c(O)cc2O)c1-c1ccc(OC)cc1

> <ID>
CHEMBL365617

> <standard_value>
320

> <IC50_uM>
0.32

> <Activity>
Yes

> <pIC50>
6.494850022

> <BCI>
1

$$$$

  SciTegic03012415362D

 69 81  0  0  1  0            999 V2000
   -1.8413   -4.5811    0.0000 C   0  0
   -0.3667   -4.3062    0.0000 C   0  0  2  0  0  0
    0.7315   -5.3280    0.0000 C   0  0  2  0  0  0
    2.0426   -4.5993    0.0000 O   0  0
    1.7758   -3.1329    0.0000 C   0  0  1  0  0  0
    2.3947   -1.7666    0.0000 C   0  0
    1.2990   -0.7500    0.0000 C   0  0
    1.2990    0.7500    0.0000 C   0  0  2  0  0  0
    2.5981    1.5000    0.0000 C   0  0
    2.5981    3.0000    0.0000 C   0  0
    1.2990    3.7500    0.0000 C   0  0  1  0  0  0
    1.2990    5.2500    0.0000 C   0  0
    0.0000    6.0000    0.0000 C   0  0
   -0.0001    7.5000    0.0000 N   0  0
   -1.2991    8.2500    0.0000 C   0  0
   -2.5981    7.5000    0.0000 C   0  0
   -2.5981    6.0000    0.0000 N   0  0
   -1.2991    5.2500    0.0000 C   0  0
   -1.2991    3.7500    0.0000 C   0  0
    0.0000    3.0000    0.0000 C   0  0  1  0  0  0
   -1.2991    2.2500    0.0000 C   0  0
    0.0000    1.5000    0.0000 C   0  0  1  0  0  0
   -1.2990    0.7500    0.0000 C   0  0
   -1.2990   -0.7500    0.0000 C   0  0  1  0  0  0
   -2.5981   -1.5000    0.0000 O   0  0
    0.0000   -1.5000    0.0000 C   0  0  1  0  0  0
   -0.8141   -2.0807    0.0000 C   0  0
    0.2851   -2.9666    0.0000 C   0  0  1  0  0  0
   -0.7064   -2.8366    0.0000 O   0  0
   -3.8972    8.2500    0.0000 C   0  0
   -3.8972    9.7500    0.0000 C   0  0  2  0  0  0
   -5.1963   10.4999    0.0000 C   0  0
   -5.1963   11.9999    0.0000 C   0  0
   -3.8972   12.7500    0.0000 C   0  0  1  0  0  0
   -3.8973   14.2500    0.0000 C   0  0
   -4.9929   15.2665    0.0000 C   0  0
   -4.3741   16.6329    0.0000 C   0  0  2  0  0  0
   -4.6409   18.0993    0.0000 O   0  0
   -3.3297   18.8280    0.0000 C   0  0  1  0  0  0
   -2.6201   20.1945    0.0000 O   0  0
   -3.6347   21.2993    0.0000 C   0  0  2  0  0  0
   -4.7748   22.2741    0.0000 C   0  0
   -2.2172   21.7503    0.0000 C   0  0
   -1.8723   23.2101    0.0000 O   0  0
   -4.9989   20.6758    0.0000 C   0  0
   -4.8275   19.1856    0.0000 C   0  0  1  0  0  0
   -5.9498   18.1904    0.0000 O   0  0
   -2.2316   17.8062    0.0000 C   0  0  1  0  0  0
   -0.7570   18.0811    0.0000 C   0  0
   -2.8833   16.4666    0.0000 C   0  0  1  0  0  0
   -1.8918   16.3366    0.0000 O   0  0
   -2.5982   15.0000    0.0000 C   0  0  2  0  0  0
   -1.7841   15.5807    0.0000 C   0  0
   -1.2992   14.2500    0.0000 C   0  0  2  0  0  0
   -0.0001   15.0000    0.0000 O   0  0
   -1.2992   12.7500    0.0000 C   0  0
   -2.5982   12.0000    0.0000 C   0  0  2  0  0  0
   -2.5982   10.5000    0.0000 C   0  0  2  0  0  0
   -1.2992   11.2500    0.0000 C   0  0
   -1.2991    9.7500    0.0000 C   0  0  1  0  0  0
   -0.0001   10.5000    0.0000 O   0  0
    1.0928   -6.8249    0.0000 O   0  0
   -0.1571   -7.6541    0.0000 C   0  0  2  0  0  0
   -1.4977   -8.3271    0.0000 C   0  0
    1.1109   -8.4318    0.0000 C   0  0
    2.4409   -7.7383    0.0000 O   0  0
   -1.3321   -6.7217    0.0000 C   0  0
   -0.8083   -5.3161    0.0000 C   0  0  1  0  0  0
   -1.6592   -4.0808    0.0000 O   0  0
  2  1  1  1
  2  3  1  0
  3  4  1  1
  5  4  1  6
  5  6  1  0
  6  7  2  0
  7  8  1  0
  8  9  1  1
  9 10  1  0
 11 10  1  6
 11 12  1  0
 12 13  1  0
 13 14  2  0
 14 15  1  0
 15 16  2  0
 16 17  1  0
 17 18  2  0
 18 13  1  0
 18 19  1  0
 19 20  1  0
 20 11  1  0
 20 21  1  6
 20 22  1  0
 22  8  1  0
 22 23  1  6
 23 24  1  0
 24 25  1  6
 24 26  1  0
 26  7  1  0
 26 27  1  6
 26 28  1  0
 28  5  1  0
 28  2  1  0
 28 29  1  1
 16 30  1  0
 31 30  1  6
 31 32  1  0
 32 33  1  0
 34 33  1  1
 34 35  1  0
 35 36  2  0
 37 36  1  6
 37 38  1  0
 39 38  1  6
 39 40  1  0
 40 41  1  0
 41 42  1  6
 41 43  1  0
 43 44  1  0
 41 45  1  0
 45 46  1  0
 46 39  1  0
 46 47  1  6
 39 48  1  0
 48 49  1  1
 48 50  1  0
 50 37  1  0
 50 51  1  1
 50 52  1  0
 52 35  1  0
 52 53  1  6
 52 54  1  0
 54 55  1  6
 54 56  1  0
 57 56  1  6
 57 34  1  0
 57 58  1  0
 58 31  1  0
 58 59  1  6
 58 60  1  0
 60 15  1  0
 60 61  1  1
  3 62  1  0
 62 63  1  0
 63 64  1  1
 63 65  1  0
 65 66  1  0
 63 67  1  0
 67 68  1  0
 68  3  1  0
 68 69  1  1
M  END
> <Smiles>
C[C@@H]1[C@]2(O[C@H]3C=C4[C@@H]5CC[C@H]6Cc7nc8c(nc7C[C@]6(C)[C@H]5C[C@@H](O)[C@]4(C)[C@]31O)C[C@@H]1CC[C@H]3C4=C[C@@H]5O[C@]6(O[C@](C)(CO)C[C@H]6O)[C@@H](C)[C@]5(O)[C@@]4(C)[C@H](O)C[C@@H]3[C@@]1(C)[C
@H]8O)O[C@](C)(CO)C[C@H]2O

> <ID>
CHEMBL256953

> <standard_value>
340

> <IC50_uM>
0.34

> <Activity>
Yes

> <pIC50>
6.468521083

> <BCI>
1

$$$$

  SciTegic03012415362D

 35 34  0  0  1  0            999 V2000
    0.0007    0.0004    0.0000 C   0  0
    1.3000    0.7500    0.0000 C   0  0
    2.6000    1.5000    0.0000 C   0  0  2  0  0  0
    2.6000    3.0000    0.0000 O   0  0
    3.9000    0.7500    0.0000 C   0  0
    5.2000    1.5000    0.0000 C   0  0
    6.5000    0.7500    0.0000 C   0  0
    7.7999    1.5000    0.0000 C   0  0
    9.0999    0.7500    0.0000 C   0  0
   10.3999    1.5000    0.0000 C   0  0
   11.6999    0.7500    0.0000 C   0  0
   12.9999    1.5000    0.0000 C   0  0
   14.2999    0.7500    0.0000 C   0  0
   15.5999    1.5000    0.0000 C   0  0
   16.8999    0.7500    0.0000 C   0  0
   18.1999    1.5000    0.0000 C   0  0
   19.4998    0.7500    0.0000 C   0  0
   20.7998    1.5000    0.0000 C   0  0
   20.8013    3.0008    0.0000 C   0  0
   22.1013    3.7508    0.0000 C   0  0
   22.1027    5.2516    0.0000 C   0  0
   23.4027    6.0016    0.0000 C   0  0
   23.4041    7.5025    0.0000 C   0  0
   24.7041    8.2525    0.0000 C   0  0
   24.7055    9.7533    0.0000 C   0  0
   26.0055   10.5033    0.0000 C   0  0  2  0  0  0
   27.3041    9.7525    0.0000 O   0  0
   26.0069   12.0041    0.0000 C   0  0
   26.0084   13.5049    0.0000 C   0  0
   26.0098   15.0058    0.0000 C   0  0
   26.0112   16.5066    0.0000 C   0  0
   26.0127   18.0074    0.0000 C   0  0
   26.0141   19.5082    0.0000 C   0  0
   26.0155   21.0091    0.0000 C   0  0
   27.3148   21.7586    0.0000 O   0  0
  1  2  3  0
  2  3  1  0
  3  4  1  6
  3  5  1  0
  5  6  2  0
  6  7  1  0
  7  8  1  0
  8  9  1  0
  9 10  1  0
 10 11  1  0
 11 12  1  0
 12 13  1  0
 13 14  1  0
 14 15  1  0
 15 16  1  0
 16 17  1  0
 17 18  2  0
 18 19  1  0
 19 20  1  0
 20 21  1  0
 21 22  1  0
 22 23  1  0
 23 24  1  0
 24 25  1  0
 25 26  1  0
 26 27  1  1
 26 28  1  0
 28 29  3  0
 29 30  1  0
 30 31  3  0
 31 32  1  0
 32 33  3  0
 33 34  1  0
 34 35  1  0
M  END
> <Smiles>
C#C[C@H](O)/C=C/CCCCCCCCCC/C=C\CCCCCCC[C@H](O)C#CC#CC#CCO

> <ID>
CHEMBL462677

> <standard_value>
346.74

> <IC50_uM>
0.34674

> <Activity>
Yes

> <pIC50>
6.459996055

> <BCI>
1

$$$$

  SciTegic03012415362D

 32 34  0  0  1  0            999 V2000
    2.5532   -4.4223    0.0000 C   0  0
    1.8032   -3.1233    0.0000 C   0  0
    2.4133   -1.7530    0.0000 N   0  0
    1.2990   -0.7500    0.0000 C   0  0
    1.2990    0.7500    0.0000 N   0  0
    0.0000    1.5000    0.0000 C   0  0
    0.0000    3.0000    0.0000 N   0  0
   -1.2990    0.7500    0.0000 N   0  0
   -1.2990   -0.7500    0.0000 C   0  0
   -2.5981   -1.5000    0.0000 O   0  0
    0.0000   -1.5000    0.0000 C   0  0
    0.3114   -2.9665    0.0000 C   0  0
   -0.6890   -4.0818    0.0000 S   0  0
   -0.2234   -5.5086    0.0000 C   0  0
   -1.2234   -6.6267    0.0000 C   0  0
   -0.7552   -8.0517    0.0000 C   0  0
    0.7130   -8.3588    0.0000 C   0  0
    1.1785   -9.7856    0.0000 C   0  0
    2.6462  -10.0952    0.0000 O   0  0
    0.1764  -10.9028    0.0000 N   0  0
    0.6419  -12.3296    0.0000 C   0  0  1  0  0  0
   -0.3603  -13.4468    0.0000 C   0  0
    0.1052  -14.8736    0.0000 C   0  0
   -0.8969  -15.9908    0.0000 C   0  0
   -0.4317  -17.4168    0.0000 O   0  0
   -2.3646  -15.6812    0.0000 O   0  0
    2.1098  -12.6424    0.0000 C   0  0
    2.5735  -14.0689    0.0000 O   0  0
    3.1137  -11.5279    0.0000 O   0  0
    1.7131   -7.2408    0.0000 C   0  0
    3.1813   -7.5478    0.0000 F   0  0
    1.2449   -5.8157    0.0000 C   0  0
  1  2  1  0
  2  3  1  0
  3  4  1  0
  4  5  1  0
  5  6  2  0
  6  7  1  0
  6  8  1  0
  8  9  1  0
  9 10  2  0
  9 11  1  0
 11  4  2  0
 11 12  1  0
 12  2  2  0
 12 13  1  0
 13 14  1  0
 14 15  2  0
 15 16  1  0
 16 17  2  0
 17 18  1  0
 18 19  2  0
 18 20  1  0
 21 20  1  6
 21 22  1  0
 22 23  1  0
 23 24  1  0
 24 25  2  0
 24 26  1  0
 21 27  1  0
 27 28  2  0
 27 29  1  0
 17 30  1  0
 30 31  1  0
 30 32  2  0
 32 14  1  0
M  END
> <Smiles>
Cc1[nH]c2nc(N)[nH]c(=O)c2c1Sc1ccc(C(=O)N[C@@H](CCC(=O)O)C(=O)O)c(F)c1

> <ID>
CHEMBL388340

> <standard_value>
347

> <IC50_uM>
0.347

> <Activity>
Yes

> <pIC50>
6.459670525

> <BCI>
1

$$$$

  SciTegic03012415362D

 19 21  0  0  1  0            999 V2000
    5.9843   -1.7144    0.0000 C   0  0
    5.6526   -0.2515    0.0000 O   0  0
    4.2194    0.1938    0.0000 C   0  0
    3.1198   -0.8265    0.0000 C   0  0
    1.6852   -0.3846    0.0000 C   0  0
    1.3514    1.0778    0.0000 C   0  0
    2.4522    2.0983    0.0000 C   0  0
    3.8856    1.6562    0.0000 C   0  0
    4.9852    2.6764    0.0000 O   0  0
    0.0000    1.7286    0.0000 N   0  0
   -1.3515    1.0777    0.0000 C   0  0
   -1.6852   -0.3847    0.0000 C   0  0  2  0  0  0
   -3.0899   -0.9120    0.0000 C   0  0
   -3.0226   -2.4105    0.0000 C   0  0  2  0  0  0
   -4.1953   -3.3457    0.0000 F   0  0
   -1.5767   -2.8095    0.0000 C   0  0
   -0.7500   -1.5574    0.0000 N   0  0
    0.7500   -1.5574    0.0000 C   0  0
    1.4008   -2.9088    0.0000 O   0  0
  1  2  1  0
  2  3  1  0
  3  4  2  0
  4  5  1  0
  5  6  2  0
  6  7  1  0
  7  8  2  0
  8  3  1  0
  8  9  1  0
  6 10  1  0
 10 11  2  0
 12 11  1  1
 12 13  1  0
 13 14  1  0
 14 15  1  1
 14 16  1  0
 16 17  1  0
 17 12  1  0
 17 18  1  0
 18  5  1  0
 18 19  2  0
M  END
> <Smiles>
COc1cc2c(cc1O)N=C[C@@H]1C[C@H](F)CN1C2=O

> <ID>
CHEMBL88221

> <standard_value>
350

> <IC50_uM>
0.35

> <Activity>
Yes

> <pIC50>
6.455931956

> <BCI>
1

$$$$

  SciTegic03012415362D

 42 44  0  0  1  0            999 V2000
   14.2982   -0.7278    0.0000 C   0  0
   13.0002   -1.4796    0.0000 S   0  0
   11.6990   -0.7319    0.0000 C   0  0
   10.4003   -1.4841    0.0000 C   0  0
    9.0990   -0.7364    0.0000 C   0  0  2  0  0  0
    9.0964    0.7636    0.0000 N   0  0
    7.8003   -1.4887    0.0000 C   0  0
    7.8029   -2.9887    0.0000 O   0  0
    6.4990   -0.7409    0.0000 N   0  0
    5.2003   -1.4932    0.0000 C   0  0
    3.8990   -0.7455    0.0000 C   0  0
    2.6003   -1.4977    0.0000 N   0  0
    1.2990   -0.7500    0.0000 C   0  0
    1.2990    0.7500    0.0000 C   0  0
    0.0000    1.5000    0.0000 C   0  0
   -1.2990    0.7500    0.0000 C   0  0
   -2.5973    1.5031    0.0000 N   0  0
   -2.5951    3.0039    0.0000 C   0  0
   -3.8933    3.7570    0.0000 C   0  0
   -3.8912    5.2578    0.0000 N   0  0
   -5.1894    6.0109    0.0000 C   0  0
   -6.4898    5.2631    0.0000 O   0  0
   -5.1873    7.5117    0.0000 C   0  0  1  0  0  0
   -3.8869    8.2595    0.0000 N   0  0
   -6.4855    8.2648    0.0000 C   0  0
   -6.4834    9.7656    0.0000 C   0  0
   -7.7816   10.5187    0.0000 S   0  0
   -7.7794   12.0187    0.0000 C   0  0
   -1.2990   -0.7500    0.0000 C   0  0
    0.0000   -1.5000    0.0000 C   0  0
    0.0000   -3.0000    0.0000 C   0  0
    1.2990   -3.7500    0.0000 O   0  0
   -1.2990   -3.7500    0.0000 C   0  0
   -1.2990   -5.2500    0.0000 C   0  0
    0.0000   -6.0000    0.0000 O   0  0
   -2.5981   -6.0000    0.0000 C   0  0
   -3.8971   -5.2500    0.0000 C   0  0
   -3.8971   -3.7500    0.0000 C   0  0
   -5.1961   -3.0000    0.0000 O   0  0
   -2.5981   -3.0000    0.0000 C   0  0
   -2.5981   -1.5000    0.0000 C   0  0
   -3.8971   -0.7500    0.0000 O   0  0
  1  2  1  0
  2  3  1  0
  3  4  1  0
  4  5  1  0
  5  6  1  1
  5  7  1  0
  7  8  2  0
  7  9  1  0
  9 10  1  0
 10 11  1  0
 11 12  1  0
 12 13  1  0
 13 14  2  0
 14 15  1  0
 15 16  2  0
 16 17  1  0
 17 18  1  0
 18 19  1  0
 19 20  1  0
 20 21  1  0
 21 22  2  0
 21 23  1  0
 23 24  1  6
 23 25  1  0
 25 26  1  0
 26 27  1  0
 27 28  1  0
 16 29  1  0
 29 30  2  0
 30 13  1  0
 30 31  1  0
 31 32  2  0
 31 33  1  0
 33 34  2  0
 34 35  1  0
 34 36  1  0
 36 37  2  0
 37 38  1  0
 38 39  1  0
 38 40  2  0
 40 33  1  0
 40 41  1  0
 41 29  1  0
 41 42  2  0
M  END
> <Smiles>
CSCC[C@H](N)C(=O)NCCNc1ccc(NCCNC(=O)[C@@H](N)CCSC)c2c1C(=O)c1c(O)ccc(O)c1C2=O

> <ID>
CHEMBL271228

> <standard_value>
350

> <IC50_uM>
0.35

> <Activity>
Yes

> <pIC50>
6.455931956

> <BCI>
1

$$$$

  SciTegic03012415362D

 21 24  0  0  0  0            999 V2000
    2.5981   -1.5000    0.0000 C   0  0
    1.2990   -0.7500    0.0000 C   0  0
    1.2990    0.7500    0.0000 C   0  0
    0.0000    1.5000    0.0000 C   0  0
   -1.2990    0.7500    0.0000 C   0  0
   -2.7248    1.2135    0.0000 N   0  0
   -3.6065    0.0000    0.0000 C   0  0
   -5.0972   -0.1561    0.0000 C   0  0
   -5.9787    1.0576    0.0000 C   0  0
   -5.7073   -1.5264    0.0000 C   0  0
   -4.8256   -2.7399    0.0000 C   0  0
   -3.3339   -2.5831    0.0000 C   0  0
   -2.4519   -3.7965    0.0000 C   0  0
   -2.7248   -1.2135    0.0000 C   0  0
   -1.2990   -0.7500    0.0000 C   0  0
    0.0000   -1.5000    0.0000 C   0  0
   -5.4357   -4.1102    0.0000 C   0  0
   -6.9275   -4.2671    0.0000 N   0  0
   -7.5376   -5.6374    0.0000 C   0  0
   -7.8092   -3.0535    0.0000 C   0  0
   -7.1991   -1.6832    0.0000 C   0  0
  1  2  1  0
  2  3  2  0
  3  4  1  0
  4  5  2  0
  5  6  1  0
  6  7  1  0
  7  8  2  0
  8  9  1  0
  8 10  1  0
 10 11  2  0
 11 12  1  0
 12 13  1  0
 12 14  2  0
 14  7  1  0
 14 15  1  0
 15  5  1  0
 15 16  2  0
 16  2  1  0
 11 17  1  0
 17 18  1  0
 18 19  1  0
 18 20  1  0
 20 21  2  0
 21 10  1  0
M  END
> <Smiles>
Cc1ccc2[nH]c3c(C)c4c(c(C)c3c2c1)CN(C)C=C4

> <ID>
CHEMBL68611

> <standard_value>
395

> <IC50_uM>
0.395

> <Activity>
Yes

> <pIC50>
6.403402904

> <BCI>
1

$$$$

  SciTegic03012415362D

 19 21  0  0  0  0            999 V2000
    2.5981   -1.5000    0.0000 C   0  0
    1.2990   -0.7500    0.0000 C   0  0
    1.2990    0.7500    0.0000 N   0  0
    0.0000    1.5000    0.0000 C   0  0
    0.0000    3.0000    0.0000 C   0  0
   -1.2991    3.7500    0.0000 C   0  0
   -2.5981    3.0000    0.0000 C   0  0
   -2.5981    1.5000    0.0000 C   0  0
   -1.2990    0.7500    0.0000 C   0  0
   -1.2990   -0.7500    0.0000 C   0  0
   -2.5981   -1.5000    0.0000 O   0  0
    0.0000   -1.5000    0.0000 N   0  0
    0.0031   -3.0008    0.0000 N   0  0
    1.3039   -3.7494    0.0000 C   0  0
    1.4469   -5.2297    0.0000 C   0  0
    2.9152   -5.5365    0.0000 S   0  0
    3.6607   -4.2349    0.0000 C   0  0
    5.1519   -4.0729    0.0000 N   0  0
    2.6532   -3.1236    0.0000 N   0  0
  1  2  1  0
  2  3  2  0
  3  4  1  0
  4  5  2  0
  5  6  1  0
  6  7  2  0
  7  8  1  0
  8  9  2  0
  9  4  1  0
  9 10  1  0
 10 11  2  0
 10 12  1  0
 12  2  1  0
 12 13  1  0
 13 14  1  0
 14 15  2  0
 15 16  1  0
 16 17  1  0
 17 18  1  0
 17 19  2  0
 19 14  1  0
M  END
> <Smiles>
Cc1nc2ccccc2c(=O)n1Nc1csc(N)n1

> <ID>
CHEMBL2297771

> <standard_value>
400

> <IC50_uM>
0.4

> <Activity>
Yes

> <pIC50>
6.397940009

> <BCI>
1

$$$$

  SciTegic03012415362D

 39 42  0  0  1  0            999 V2000
    6.5192    2.9872    0.0000 C   0  0
    5.2959    3.8552    0.0000 C   0  0  2  0  0  0
    3.9319    3.2290    0.0000 N   0  0
    3.7913    1.7347    0.0000 C   0  0
    5.0147    0.8667    0.0000 O   0  0
    2.4215    1.1059    0.0000 C   0  0  2  0  0  0
    1.4392    2.2395    0.0000 C   0  0
    0.0000    2.6621    0.0000 S   0  0
   -1.4393    2.2395    0.0000 S   0  0
   -2.4215    1.1059    0.0000 C   0  0
   -2.6350   -0.3789    0.0000 C   0  0  1  0  0  0
   -4.1273   -0.5904    0.0000 N   0  0
   -5.0535    0.5906    0.0000 C   0  0
   -4.4936    1.9822    0.0000 O   0  0
   -6.5394    0.3800    0.0000 C   0  0
   -7.0970   -1.0126    0.0000 N   0  0
   -8.5817   -1.2261    0.0000 C   0  0
   -9.1392   -2.6187    0.0000 C   0  0
  -10.6239   -2.8322    0.0000 C   0  0
  -11.5512   -1.6532    0.0000 C   0  0
  -10.9937   -0.2606    0.0000 C   0  0
   -9.5090   -0.0471    0.0000 C   0  0
   -8.9515    1.3455    0.0000 C   0  0
   -7.4668    1.5590    0.0000 C   0  0
   -6.9094    2.9516    0.0000 O   0  0
   -2.0119   -1.7433    0.0000 C   0  0
   -3.1455   -2.7256    0.0000 O   0  0
   -0.7500   -2.5543    0.0000 N   0  0
    0.7500   -2.5543    0.0000 C   0  0
    2.0119   -1.7433    0.0000 C   0  0
    3.1455   -2.7256    0.0000 O   0  0
    2.6350   -0.3789    0.0000 N   0  0
    4.1197   -0.5923    0.0000 C   0  0
    5.4365    5.3494    0.0000 C   0  0
    4.2146    6.2196    0.0000 C   0  0
    4.3572    7.7128    0.0000 C   0  0
    5.7216    8.3359    0.0000 C   0  0
    6.9435    7.4659    0.0000 C   0  0
    6.8009    5.9727    0.0000 C   0  0
  2  1  1  6
  2  3  1  0
  3  4  1  0
  4  5  2  0
  6  4  1  1
  6  7  1  0
  7  8  1  0
  8  9  1  0
  9 10  1  0
 10 11  1  0
 11 12  1  6
 12 13  1  0
 13 14  2  0
 13 15  1  0
 15 16  2  0
 16 17  1  0
 17 18  2  0
 18 19  1  0
 19 20  2  0
 20 21  1  0
 21 22  2  0
 22 17  1  0
 22 23  1  0
 23 24  2  0
 24 15  1  0
 24 25  1  0
 11 26  1  0
 26 27  2  0
 26 28  1  0
 28 29  1  0
 29 30  1  0
 30 31  2  0
 30 32  1  0
 32  6  1  0
 32 33  1  0
  2 34  1  0
 34 35  2  0
 35 36  1  0
 36 37  2  0
 37 38  1  0
 38 39  2  0
 39 34  1  0
M  END
> <Smiles>
C[C@H](NC(=O)[C@@H]1CSSC[C@@H](NC(=O)c2nc3ccccc3cc2O)C(=O)NCC(=O)N1C)c1ccccc1

> <ID>
CHEMBL3634181

> <standard_value>
400

> <IC50_uM>
0.4

> <Activity>
Yes

> <pIC50>
6.397940009

> <BCI>
1

$$$$

  SciTegic03012415362D

 44 48  0  0  1  0            999 V2000
    3.8978   -2.2504    0.0000 N   0  0
    2.5988   -1.5004    0.0000 C   0  0
    1.2990   -0.7500    0.0000 C   0  0
    1.2990    0.7500    0.0000 C   0  0
    0.0000    1.5000    0.0000 N   0  0
   -1.2990    0.7500    0.0000 C   0  0
   -2.5981    1.5000    0.0000 C   0  0
   -3.8971    0.7500    0.0000 C   0  0
   -5.1953    1.5031    0.0000 O   0  0
   -5.1932    3.0039    0.0000 C   0  0
   -6.4914    3.7570    0.0000 C   0  0  2  0  0  0
   -7.7918    3.0092    0.0000 O   0  0
   -6.4893    5.2578    0.0000 C   0  0
   -7.7868    6.0104    0.0000 O   0  0
   -3.8971   -0.7500    0.0000 C   0  0
   -5.1953   -1.5031    0.0000 N   0  0
   -5.1932   -3.0039    0.0000 C   0  0
   -3.8928   -3.7517    0.0000 O   0  0
   -6.4914   -3.7570    0.0000 C   0  0
   -6.4892   -5.2579    0.0000 C   0  0
   -7.6997   -6.1219    0.0000 C   0  0
   -7.2312   -7.5469    0.0000 S   0  0
   -5.7313   -7.5416    0.0000 S   0  0
   -5.2727   -6.1135    0.0000 C   0  0
   -2.5981   -1.5000    0.0000 C   0  0
   -1.2990   -0.7500    0.0000 C   0  0
    0.0000   -1.5000    0.0000 C   0  0
    0.0031   -3.0008    0.0000 N   0  0
    1.3039   -3.7494    0.0000 C   0  0
    1.3092   -5.2494    0.0000 C   0  0
    2.6108   -5.9949    0.0000 C   0  0
    3.9073   -5.2404    0.0000 C   0  0
    5.2081   -5.9890    0.0000 O   0  0
    5.2111   -7.4898    0.0000 C   0  0
    6.5119   -8.2384    0.0000 C   0  0
    6.5172   -9.7384    0.0000 C   0  0
    7.8188  -10.4840    0.0000 C   0  0
    9.1152   -9.7295    0.0000 C   0  0
    9.1101   -8.2295    0.0000 C   0  0
   10.4065   -7.4751    0.0000 F   0  0
    7.8085   -7.4840    0.0000 C   0  0
    3.9021   -3.7404    0.0000 C   0  0
    5.1985   -2.9859    0.0000 Cl  0  0
    2.6004   -2.9949    0.0000 C   0  0
  1  2  3  0
  2  3  1  0
  3  4  2  0
  4  5  1  0
  5  6  2  0
  6  7  1  0
  7  8  2  0
  8  9  1  0
  9 10  1  0
 10 11  1  0
 11 12  1  6
 11 13  1  0
 13 14  1  0
  8 15  1  0
 15 16  1  0
 16 17  1  0
 17 18  2  0
 17 19  1  0
 19 20  1  0
 20 21  1  0
 21 22  1  0
 22 23  1  0
 23 24  1  0
 24 20  1  0
 15 25  2  0
 25 26  1  0
 26  6  1  0
 26 27  2  0
 27  3  1  0
 27 28  1  0
 28 29  1  0
 29 30  2  0
 30 31  1  0
 31 32  2  0
 32 33  1  0
 33 34  1  0
 34 35  1  0
 35 36  2  0
 36 37  1  0
 37 38  2  0
 38 39  1  0
 39 40  1  0
 39 41  2  0
 41 35  1  0
 32 42  1  0
 42 43  1  0
 42 44  2  0
 44 29  1  0
M  END
> <Smiles>
N#Cc1cnc2cc(OC[C@H](O)CO)c(NC(=O)CC3CSSC3)cc2c1Nc1ccc(OCc2cccc(F)c2)c(Cl)c1

> <ID>
CHEMBL4642574

> <standard_value>
404

> <IC50_uM>
0.404

> <Activity>
Yes

> <pIC50>
6.393618635

> <BCI>
1

$$$$

  SciTegic03012415362D

 22 25  0  0  0  0            999 V2000
   15.5043    0.1913    0.0000 C   0  0
   15.5064    1.6913    0.0000 O   0  0
   14.2082    2.4444    0.0000 C   0  0
   14.2082    3.9444    0.0000 C   0  0
   12.9092    4.6944    0.0000 C   0  0
   11.6101    3.9444    0.0000 C   0  0
   10.1844    4.4079    0.0000 N   0  0
    9.3027    3.1944    0.0000 C   0  0
    7.8119    3.0383    0.0000 C   0  0
    6.9305    4.2520    0.0000 C   0  0
    7.2019    1.6680    0.0000 C   0  0
    5.7101    1.5112    0.0000 C   0  0
    5.1000    0.1409    0.0000 C   0  0
    5.9817   -1.0726    0.0000 N   0  3
    5.3716   -2.4430    0.0000 C   0  0
    7.4735   -0.9158    0.0000 C   0  0
    8.0835    0.4545    0.0000 C   0  0
    9.5753    0.6113    0.0000 C   0  0
   10.4573   -0.6020    0.0000 C   0  0
   10.1844    1.9809    0.0000 C   0  0
   11.6101    2.4444    0.0000 C   0  0
   12.9092    1.6944    0.0000 C   0  0
  1  2  1  0
  2  3  1  0
  3  4  2  0
  4  5  1  0
  5  6  2  0
  6  7  1  0
  7  8  1  0
  8  9  2  0
  9 10  1  0
  9 11  1  0
 11 12  2  0
 12 13  1  0
 13 14  2  0
 14 15  1  0
 14 16  1  0
 16 17  2  0
 17 11  1  0
 17 18  1  0
 18 19  1  0
 18 20  2  0
 20  8  1  0
 20 21  1  0
 21  6  1  0
 21 22  2  0
 22  3  1  0
M  CHG  1  14   1
M  END
> <Smiles>
CC(=O)[O-].COc1ccc2[nH]c3c(C)c4cc[n+](C)cc4c(C)c3c2c1

> <ID>
CHEMBL305589

> <standard_value>
409

> <IC50_uM>
0.409

> <Activity>
Yes

> <pIC50>
6.388276692

> <BCI>
1

> <RemovedSalts>
CC(=O)[O-]

$$$$

  SciTegic03012415362D

 20 22  0  0  0  0            999 V2000
    2.5951   -3.0031    0.0000 C   0  0
    2.5973   -1.5031    0.0000 O   0  0
    1.2990   -0.7500    0.0000 C   0  0
    1.2990    0.7500    0.0000 C   0  0
    0.0000    1.5000    0.0000 C   0  0
   -1.2990    0.7500    0.0000 C   0  0
   -2.5981    1.5000    0.0000 N   0  0
   -3.8971    0.7500    0.0000 C   0  0
   -5.1968    1.5003    0.0000 C   0  0
   -5.1993    3.0004    0.0000 C   0  0
   -6.4995    3.7483    0.0000 C   0  0
   -7.7974    2.9963    0.0000 C   0  0
   -9.0976    3.7442    0.0000 O   0  0
   -7.7950    1.4963    0.0000 C   0  0
   -6.4948    0.7483    0.0000 C   0  0
   -3.8971   -0.7500    0.0000 C   0  0
   -2.5981   -1.5000    0.0000 C   0  0
   -2.5981   -3.0000    0.0000 O   0  0
   -1.2990   -0.7500    0.0000 C   0  0
    0.0000   -1.5000    0.0000 C   0  0
  1  2  1  0
  2  3  1  0
  3  4  2  0
  4  5  1  0
  5  6  2  0
  6  7  1  0
  7  8  2  0
  8  9  1  0
  9 10  2  0
 10 11  1  0
 11 12  2  0
 12 13  1  0
 12 14  1  0
 14 15  2  0
 15  9  1  0
  8 16  1  0
 16 17  2  0
 17 18  1  0
 17 19  1  0
 19  6  1  0
 19 20  2  0
 20  3  1  0
M  END
> <Smiles>
COc1ccc2nc(-c3ccc(O)cc3)cc(O)c2c1

> <ID>
CHEMBL14928

> <standard_value>
416.87

> <IC50_uM>
0.41687

> <Activity>
Yes

> <pIC50>
6.379999358

> <BCI>
1

$$$$

  SciTegic03012415362D

 31 34  0  0  0  0            999 V2000
    3.1250  -11.5129    0.0000 C   0  0
    2.6539  -10.0888    0.0000 O   0  0
    1.1844   -9.7837    0.0000 C   0  0
    0.1863  -10.9034    0.0000 O   0  0
    0.7130   -8.3588    0.0000 C   0  0
   -0.7552   -8.0517    0.0000 C   0  0
   -1.2234   -6.6267    0.0000 C   0  0
   -0.2234   -5.5086    0.0000 C   0  0
   -0.6890   -4.0818    0.0000 C   0  0
    0.3114   -2.9665    0.0000 N   0  0
    1.8032   -3.1233    0.0000 C   0  0
    2.3032   -3.9893    0.0000 C   0  0
    2.4133   -1.7530    0.0000 C   0  0
    3.8794   -1.4442    0.0000 C   0  0
    4.8823   -2.5608    0.0000 C   0  0
    6.3506   -2.2538    0.0000 C   0  0
    6.8188   -0.8288    0.0000 O   0  0
    7.3506   -3.3718    0.0000 N   0  0
    6.8824   -4.7969    0.0000 C   0  0
    7.8825   -5.9149    0.0000 S   0  0
    5.4142   -5.1039    0.0000 N   0  0
    4.4142   -3.9859    0.0000 C   0  0
    3.4353   -4.1907    0.0000 O   0  0
    1.2990   -0.7500    0.0000 C   0  0
    1.2990    0.7500    0.0000 C   0  0
    0.0000    1.5000    0.0000 C   0  0
   -1.2990    0.7500    0.0000 C   0  0
   -1.2990   -0.7500    0.0000 C   0  0
    0.0000   -1.5000    0.0000 C   0  0
    1.2449   -5.8157    0.0000 C   0  0
    1.7131   -7.2408    0.0000 C   0  0
  1  2  1  0
  2  3  1  0
  3  4  2  0
  3  5  1  0
  5  6  2  0
  6  7  1  0
  7  8  2  0
  8  9  1  0
  9 10  1  0
 10 11  1  0
 11 12  1  0
 11 13  2  0
 13 14  1  0
 14 15  2  0
 15 16  1  0
 16 17  2  0
 16 18  1  0
 18 19  1  0
 19 20  2  0
 19 21  1  0
 21 22  1  0
 22 15  1  0
 22 23  2  0
 13 24  1  0
 24 25  2  0
 25 26  1  0
 26 27  2  0
 27 28  1  0
 28 29  2  0
 29 24  1  0
 29 10  1  0
  8 30  1  0
 30 31  2  0
 31  5  1  0
M  END
> <Smiles>
COC(=O)c1ccc(Cn2c(C)c(C=C3C(=O)NC(=S)NC3=O)c3ccccc32)cc1

> <ID>
CHEMBL3589681

> <standard_value>
420

> <IC50_uM>
0.42

> <Activity>
Yes

> <pIC50>
6.37675071

> <BCI>
1

$$$$

  SciTegic03012415362D

 65 77  0  0  1  0            999 V2000
    4.8904    0.8817    0.0000 C   0  0
    3.6769    0.0000    0.0000 C   0  0  1  0  0  0
    2.2503    0.4635    0.0000 C   0  0  1  0  0  0
    1.8129    1.8983    0.0000 O   0  0
    1.2990   -0.7500    0.0000 C   0  0  3  0  0  0
    1.2990    0.7500    0.0000 O   0  0
    0.0000    1.5000    0.0000 C   0  0
   -0.2322    3.0307    0.0000 C   0  0
   -1.6026    3.6408    0.0000 C   0  0
   -2.8161    2.7592    0.0000 C   0  0
   -2.7248    1.2135    0.0000 C   0  0
   -1.2990    0.7500    0.0000 C   0  0
   -1.2990   -0.7500    0.0000 C   0  0  2  0  0  0
   -2.7248   -1.2135    0.0000 C   0  0
   -3.6065    0.0000    0.0000 C   0  0  1  0  0  0
   -5.1065    0.0000    0.0000 O   0  0
    0.0000   -1.5000    0.0000 C   0  0  2  0  0  0
    0.0000   -3.0000    0.0000 C   0  0
   -4.1867    3.3691    0.0000 C   0  0
   -4.3435    4.8608    0.0000 C   0  0
   -3.1299    5.7425    0.0000 C   0  0  1  0  0  0
   -3.2867    7.2343    0.0000 C   0  0
   -2.0731    8.1159    0.0000 C   0  0
   -2.2298    9.6077    0.0000 N   0  0
   -1.0163   10.4893    0.0000 C   0  0
    0.3540    9.8792    0.0000 C   0  0
    0.5108    8.3874    0.0000 N   0  0
   -0.7028    7.5058    0.0000 C   0  0
   -0.5461    6.0140    0.0000 C   0  0
   -1.7596    5.1323    0.0000 C   0  0  2  0  0  0
   -0.3892    4.5223    0.0000 C   0  0
    1.5676   10.7608    0.0000 C   0  0
    1.4108   12.2526    0.0000 C   0  0  2  0  0  0
    2.6244   13.1342    0.0000 C   0  0
    2.4677   14.6260    0.0000 C   0  0
    1.0974   15.2362    0.0000 C   0  0  1  0  0  0
    0.9406   16.7280    0.0000 C   0  0
    1.9240   17.8535    0.0000 C   0  0
    1.1658   19.1477    0.0000 C   0  0  2  0  0  0
    1.2779   20.6340    0.0000 O   0  0
   -0.1022   21.2216    0.0000 C   0  0  1  0  0  0
   -1.0876   20.0907    0.0000 C   0  0
   -0.2994   18.8265    0.0000 C   0  0  1  0  0  0
   -1.2719   18.5936    0.0000 O   0  0
   -0.4297   17.3381    0.0000 C   0  0  2  0  0  0
   -1.3000   17.8306    0.0000 C   0  0
   -1.6432   16.4565    0.0000 C   0  0  2  0  0  0
   -3.0135   17.0666    0.0000 O   0  0
   -1.4865   14.9647    0.0000 C   0  0
   -0.1162   14.3546    0.0000 C   0  0  2  0  0  0
    0.0405   12.8628    0.0000 C   0  0  2  0  0  0
   -1.3298   13.4729    0.0000 C   0  0
   -1.1730   11.9811    0.0000 C   0  0
   -0.9508   22.5065    0.0000 O   0  0
   -0.0572   23.7113    0.0000 C   0  0  2  0  0  0
    0.9748   24.7999    0.0000 C   0  0
   -1.5141   24.0116    0.0000 C   0  0
   -2.5292   22.9073    0.0000 O   0  0
    1.3647   23.2337    0.0000 C   0  0
    1.3499   21.7338    0.0000 C   0  0  1  0  0  0
    2.5701   20.8613    0.0000 O   0  0
    2.2503   -1.9635    0.0000 O   0  0
    3.6769   -1.5000    0.0000 C   0  0
    5.0379   -0.8694    0.0000 C   0  0
    3.4980   -2.9893    0.0000 C   0  0
  2  1  1  6
  2  3  1  0
  3  4  1  6
  3  5  1  0
  5  6  1  4
  6  7  1  0
  7  8  2  0
  8  9  1  0
  9 10  2  0
 10 11  1  0
 11 12  2  0
 12  7  1  0
 12 13  1  0
 13 14  1  1
 14 15  1  0
 15 11  1  0
 15 16  1  1
 13 17  1  0
 17  5  1  0
 17 18  1  1
 10 19  1  0
 19 20  1  0
 21 20  1  1
 21 22  1  0
 22 23  1  0
 23 24  2  0
 24 25  1  0
 25 26  2  0
 26 27  1  0
 27 28  2  0
 28 23  1  0
 28 29  1  0
 29 30  1  0
 30  9  1  0
 30 21  1  0
 30 31  1  1
 26 32  1  0
 33 32  1  1
 33 34  1  0
 34 35  1  0
 36 35  1  6
 36 37  1  0
 37 38  2  0
 39 38  1  1
 39 40  1  0
 41 40  1  1
 41 42  1  0
 42 43  1  0
 43 39  1  0
 43 44  1  6
 43 45  1  0
 45 37  1  0
 45 46  1  1
 45 47  1  0
 47 48  1  1
 47 49  1  0
 50 49  1  1
 50 36  1  0
 50 51  1  0
 51 33  1  0
 51 52  1  1
 51 53  1  0
 53 25  1  0
 41 54  1  0
 54 55  1  0
 55 56  1  1
 55 57  1  0
 57 58  1  0
 55 59  1  0
 59 60  1  0
 60 41  1  0
 60 61  1  1
  5 62  1  0
 62 63  1  0
 63  2  1  0
 63 64  1  0
 63 65  1  0
M  END
> <Smiles>
C[C@H]1[C@@H](O)C2(Oc3cc4c(c5c3[C@H](C[C@H]5O)[C@@H]2C)CC[C@H]2Cc3nc5c(nc3C[C@]42C)C[C@@H]2CC[C@H]3C4=C[C@@H]6O[C@@]7(C[C@]6(O)[C@@]4(C)[C@H](O)C[C@@H]3[C@@]2(C)C5)O[C@](C)(CO)C[C@H]7O)OC1(C)C

> <ID>
CHEMBL248197

> <standard_value>
440

> <IC50_uM>
0.44

> <Activity>
Yes

> <pIC50>
6.356547324

> <BCI>
1

$$$$

  SciTegic03012415362D

 29 33  0  0  0  0            999 V2000
    3.8983   -0.7459    0.0000 C   0  0
    2.6003   -1.4977    0.0000 O   0  0
    1.2990   -0.7500    0.0000 C   0  0
    1.2990    0.7500    0.0000 C   0  0
    0.0000    1.5000    0.0000 C   0  0
    0.0000    3.0000    0.0000 C   0  0
    1.2990    3.7500    0.0000 O   0  0
   -1.2991    3.7500    0.0000 N   0  0
   -1.2960    5.2508    0.0000 C   0  0
    0.0048    5.9994    0.0000 C   0  0
    0.0079    7.4994    0.0000 N   0  0
   -2.5981    3.0000    0.0000 C   0  0
   -3.8971    3.7500    0.0000 C   0  0
   -3.8972    5.2500    0.0000 C   0  0
   -5.1962    6.0000    0.0000 C   0  0
   -6.4952    5.2500    0.0000 C   0  0
   -6.4952    3.7500    0.0000 C   0  0
   -5.1962    3.0000    0.0000 C   0  0
   -5.1962    1.5000    0.0000 C   0  0
   -3.8971    0.7500    0.0000 C   0  0
   -2.5981    1.5000    0.0000 C   0  0
   -1.2990    0.7500    0.0000 C   0  0
   -1.2990   -0.7500    0.0000 C   0  0
    0.0000   -1.5000    0.0000 C   0  0
   -0.0031   -3.0008    0.0000 O   0  0
   -1.3032   -3.7490    0.0000 C   0  0
   -7.6095    6.2529    0.0000 O   0  0
   -6.9995    7.6232    0.0000 C   0  0
   -5.5077    7.4665    0.0000 O   0  0
  1  2  1  0
  2  3  1  0
  3  4  2  0
  4  5  1  0
  5  6  1  0
  6  7  2  0
  6  8  1  0
  8  9  1  0
  9 10  1  0
 10 11  1  0
  8 12  1  0
 12 13  2  0
 13 14  1  0
 14 15  2  0
 15 16  1  0
 16 17  2  0
 17 18  1  0
 18 13  1  0
 18 19  2  0
 19 20  1  0
 20 21  2  0
 21 12  1  0
 21 22  1  0
 22  5  2  0
 22 23  1  0
 23 24  2  0
 24  3  1  0
 24 25  1  0
 25 26  1  0
 16 27  1  0
 27 28  1  0
 28 29  1  0
 29 15  1  0
M  END
> <Smiles>
COc1cc2c(=O)n(CCN)c3c4cc5c(cc4ccc3c2cc1OC)OCO5

> <ID>
CHEMBL4446606

> <standard_value>
442

> <IC50_uM>
0.442

> <Activity>
Yes

> <pIC50>
6.354577731

> <BCI>
1

$$$$

  SciTegic03012415362D

 34 37  0  0  0  0            999 V2000
    2.5981   -1.5000    0.0000 O   0  0
    1.2990   -0.7500    0.0000 C   0  0
    1.2990    0.7500    0.0000 C   0  0
    2.5972    1.5031    0.0000 C   0  0
    2.5951    3.0039    0.0000 C   0  0
    1.2934    3.7495    0.0000 C   0  0
    1.2883    5.2495    0.0000 C   0  0
    2.5847    6.0040    0.0000 C   0  0
    2.5795    7.5040    0.0000 Cl  0  0
    3.8863    5.2585    0.0000 C   0  0
    3.8915    3.7585    0.0000 C   0  0
    5.1932    3.0131    0.0000 Cl  0  0
    0.0000    1.5000    0.0000 C   0  0
   -1.2990    0.7500    0.0000 N   0  0
   -2.5988    1.5004    0.0000 S   0  0
   -3.8976    0.7500    0.0000 O   0  0
   -2.5986    0.0004    0.0000 O   0  0
   -2.5998    3.0012    0.0000 C   0  0
   -3.8993    3.7504    0.0000 C   0  0
   -3.9002    5.2504    0.0000 C   0  0
   -2.6017    6.0012    0.0000 C   0  0
   -1.3022    5.2521    0.0000 C   0  0
   -1.3012    3.7521    0.0000 C   0  0
   -1.2990   -0.7500    0.0000 C   0  0
    0.0000   -1.5000    0.0000 C   0  0
   -0.0031   -3.0008    0.0000 C   0  0
   -1.3039   -3.7494    0.0000 C   0  0
   -2.6004   -2.9949    0.0000 C   0  0
   -3.9021   -3.7405    0.0000 C   0  0
   -3.9072   -5.2404    0.0000 C   0  0
   -5.2088   -5.9860    0.0000 Cl  0  0
   -2.6108   -5.9949    0.0000 C   0  0
   -1.3092   -5.2494    0.0000 C   0  0
   -0.0127   -6.0039    0.0000 Cl  0  0
  1  2  2  0
  2  3  1  0
  3  4  2  0
  4  5  1  0
  5  6  2  0
  6  7  1  0
  7  8  2  0
  8  9  1  0
  8 10  1  0
 10 11  2  0
 11  5  1  0
 11 12  1  0
  3 13  1  0
 13 14  1  0
 14 15  1  0
 15 16  2  0
 15 17  2  0
 15 18  1  0
 18 19  2  0
 19 20  1  0
 20 21  2  0
 21 22  1  0
 22 23  2  0
 23 18  1  0
 14 24  1  0
 24 25  1  0
 25  2  1  0
 25 26  2  0
 26 27  1  0
 27 28  2  0
 28 29  1  0
 29 30  2  0
 30 31  1  0
 30 32  1  0
 32 33  2  0
 33 27  1  0
 33 34  1  0
M  END
> <Smiles>
O=C1/C(=C/c2ccc(Cl)cc2Cl)CN(S(=O)(=O)c2ccccc2)C/C1=C\c1ccc(Cl)cc1Cl

> <ID>
CHEMBL3221214

> <standard_value>
446.68

> <IC50_uM>
0.44668

> <Activity>
Yes

> <pIC50>
6.350003493

> <BCI>
1

$$$$

  SciTegic03012415362D

 30 32  0  0  1  0            999 V2000
    1.9135   -4.8267    0.0000 C   0  0
    1.0280   -3.6160    0.0000 O   0  0
    1.6332   -2.2426    0.0000 N   0  0
    3.1255   -2.0835    0.0000 C   0  0
    4.0102   -3.2959    0.0000 C   0  0
    5.5026   -3.1368    0.0000 C   0  0
    6.3873   -4.3492    0.0000 C   0  0
    7.8791   -4.1924    0.0000 C   0  0
    8.7608   -5.4059    0.0000 C   0  0
    8.1508   -6.7763    0.0000 C   0  0
    9.0305   -7.9922    0.0000 N   0  0
    8.4182   -9.3625    0.0000 C   0  0
    9.2979  -10.5784    0.0000 C   0  0
    8.6859  -11.9479    0.0000 Cl  0  0
   10.5237   -7.8410    0.0000 C   0  0
   11.4021   -9.0579    0.0000 C   0  0
   12.8944   -8.9067    0.0000 Cl  0  0
    6.6590   -6.9331    0.0000 C   0  0
    5.7773   -5.7196    0.0000 C   0  0
    0.7500   -1.0323    0.0000 C   0  0  2  0  0  0
    1.2135    0.3943    0.0000 O   0  0
    0.0000    1.2760    0.0000 C   0  0  1  0  0  0
   -1.2135    0.3943    0.0000 C   0  0  2  0  0  0
   -2.4258    1.2743    0.0000 O   0  0
   -1.9623    2.7008    0.0000 C   0  0
   -2.8440    3.9144    0.0000 O   0  0
   -0.4623    2.7009    0.0000 C   0  0  1  0  0  0
    0.4196    3.9142    0.0000 O   0  0
   -0.7500   -1.0323    0.0000 C   0  0  1  0  0  0
   -1.6317   -2.2458    0.0000 O   0  0
  1  2  1  0
  2  3  1  0
  3  4  1  0
  4  5  1  0
  5  6  1  0
  6  7  1  0
  7  8  2  0
  8  9  1  0
  9 10  2  0
 10 11  1  0
 11 12  1  0
 12 13  1  0
 13 14  1  0
 11 15  1  0
 15 16  1  0
 16 17  1  0
 10 18  1  0
 18 19  2  0
 19  7  1  0
 20  3  1  1
 20 21  1  0
 22 21  1  1
 22 23  1  0
 23 24  1  1
 24 25  1  0
 25 26  2  0
 25 27  1  0
 27 22  1  0
 27 28  1  1
 23 29  1  0
 29 20  1  0
 29 30  1  6
M  END
> <Smiles>
CON(CCCc1ccc(N(CCCl)CCCl)cc1)[C@@H]1O[C@H]2[C@H](OC(=O)[C@H]2O)[C@H]1O

> <ID>
CHEMBL1277337

> <standard_value>
460

> <IC50_uM>
0.46

> <Activity>
Yes

> <pIC50>
6.337242168

> <BCI>
1

$$$$

  SciTegic03012415362D

 46 51  0  0  0  0            999 V2000
    3.8983   -0.7459    0.0000 C   0  0
    2.6003   -1.4977    0.0000 O   0  0
    1.2990   -0.7500    0.0000 C   0  0
    1.2990    0.7500    0.0000 C   0  0
    0.0000    1.5000    0.0000 C   0  0
    0.0000    3.0000    0.0000 N   0  0
   -1.2991    3.7500    0.0000 C   0  0
   -2.5981    3.0000    0.0000 N   0  0
   -2.5981    1.5000    0.0000 C   0  0
   -3.8994    0.7522    0.0000 O   0  0
   -5.1981    1.5045    0.0000 C   0  0
   -5.1930    3.0046    0.0000 C   0  0
   -6.4894    3.7590    0.0000 C   0  0
   -7.7910    3.0135    0.0000 C   0  0
   -9.0866    3.7711    0.0000 N   0  0
   -9.0793    5.2719    0.0000 C   0  0
   -7.7764    6.0151    0.0000 O   0  0
  -10.3749    6.0294    0.0000 N   0  0
  -10.3676    7.5302    0.0000 C   0  0
  -11.6614    8.2893    0.0000 C   0  0
  -11.6511    9.7893    0.0000 C   0  0
  -10.3469   10.5303    0.0000 C   0  0
  -10.3396   12.0311    0.0000 C   0  0
  -11.6352   12.7886    0.0000 N   0  0
  -11.6301   14.2886    0.0000 C   0  0
  -12.9266   15.0431    0.0000 C   0  0
  -14.2282   14.2976    0.0000 O   0  0
  -14.2334   12.7976    0.0000 C   0  0
  -12.9369   12.0431    0.0000 C   0  0
   -9.0530    9.7713    0.0000 C   0  0
   -7.7481   10.5127    0.0000 C   0  0
   -7.7368   12.0127    0.0000 F   0  0
   -6.4546    9.7534    0.0000 F   0  0
   -6.4436   11.2531    0.0000 F   0  0
   -9.0634    8.2713    0.0000 C   0  0
   -7.7962    1.5135    0.0000 C   0  0
   -9.0978    0.7680    0.0000 C   0  0
   -9.1030   -0.7320    0.0000 C   0  0
   -7.8065   -1.4865    0.0000 C   0  0
   -6.5049   -0.7409    0.0000 C   0  0
   -6.4998    0.7590    0.0000 C   0  0
   -1.2990    0.7500    0.0000 C   0  0
   -1.2990   -0.7500    0.0000 C   0  0
    0.0000   -1.5000    0.0000 C   0  0
   -0.0031   -3.0008    0.0000 O   0  0
   -1.3032   -3.7490    0.0000 C   0  0
  1  2  1  0
  2  3  1  0
  3  4  2  0
  4  5  1  0
  5  6  2  0
  6  7  1  0
  7  8  2  0
  8  9  1  0
  9 10  1  0
 10 11  1  0
 11 12  2  0
 12 13  1  0
 13 14  2  0
 14 15  1  0
 15 16  1  0
 16 17  2  0
 16 18  1  0
 18 19  1  0
 19 20  2  0
 20 21  1  0
 21 22  2  0
 22 23  1  0
 23 24  1  0
 24 25  1  0
 25 26  1  0
 26 27  1  0
 27 28  1  0
 28 29  1  0
 29 24  1  0
 22 30  1  0
 30 31  1  0
 31 32  1  0
 31 33  1  0
 31 34  1  0
 30 35  2  0
 35 19  1  0
 14 36  1  0
 36 37  2  0
 37 38  1  0
 38 39  2  0
 39 40  1  0
 40 41  2  0
 41 11  1  0
 41 36  1  0
  9 42  2  0
 42  5  1  0
 42 43  1  0
 43 44  2  0
 44  3  1  0
 44 45  1  0
 45 46  1  0
M  END
> <Smiles>
COc1cc2ncnc(Oc3ccc(NC(=O)Nc4ccc(CN5CCOCC5)c(C(F)(F)F)c4)c4ccccc34)c2cc1OC

> <ID>
CHEMBL4075561

> <standard_value>
460

> <IC50_uM>
0.46

> <Activity>
Yes

> <pIC50>
6.337242168

> <BCI>
1

$$$$

  SciTegic03012415362D

 41 44  0  0  0  0            999 V2000
   11.6925   -3.7830    0.0000 C   0  0
   10.3968   -3.0271    0.0000 O   0  0
    9.0932   -3.7708    0.0000 C   0  0
    7.7965   -3.0168    0.0000 C   0  0
    6.4951   -3.7627    0.0000 C   0  0
    6.4904   -5.2628    0.0000 C   0  0
    5.1894   -6.0109    0.0000 N   0  0
    5.1873   -7.5117    0.0000 C   0  0
    6.4855   -8.2648    0.0000 C   0  0
    7.7858   -7.5171    0.0000 O   0  0
    6.4833   -9.7656    0.0000 N   0  0
    7.7815  -10.5187    0.0000 C   0  0
    7.7794  -12.0195    0.0000 C   0  0
    9.0776  -12.7726    0.0000 C   0  0
    9.0755  -14.2734    0.0000 Te  0  0
   10.3737  -15.0265    0.0000 C   0  0
   10.3737  -16.5266    0.0000 C   0  0
   11.6728  -17.2766    0.0000 C   0  0
   12.9718  -16.5266    0.0000 C   0  0
   12.9719  -15.0266    0.0000 C   0  0
   11.6728  -14.2766    0.0000 C   0  0
    3.8912   -5.2578    0.0000 C   0  0
    2.5909   -6.0056    0.0000 O   0  0
    3.8933   -3.7570    0.0000 C   0  0
    2.5951   -3.0039    0.0000 C   0  0
    2.5973   -1.5031    0.0000 S   0  0
    1.2990   -0.7500    0.0000 C   0  0
    1.2990    0.7500    0.0000 C   0  0
    2.5981    1.5000    0.0000 C   0  0
    0.0000    1.5000    0.0000 C   0  0
    0.0000    3.0000    0.0000 O   0  0
   -1.2990    0.7500    0.0000 C   0  0
   -2.5981    1.5000    0.0000 C   0  0
   -3.8971    0.7500    0.0000 C   0  0
   -3.8971   -0.7500    0.0000 C   0  0
   -2.5981   -1.5000    0.0000 C   0  0
   -1.2990   -0.7500    0.0000 C   0  0
    0.0000   -1.5000    0.0000 C   0  0
    0.0000   -3.0000    0.0000 O   0  0
    7.7872   -6.0167    0.0000 C   0  0
    9.0886   -5.2708    0.0000 C   0  0
  1  2  1  0
  2  3  1  0
  3  4  2  0
  4  5  1  0
  5  6  2  0
  6  7  1  0
  7  8  1  0
  8  9  1  0
  9 10  2  0
  9 11  1  0
 11 12  1  0
 12 13  1  0
 13 14  1  0
 14 15  1  0
 15 16  1  0
 16 17  2  0
 17 18  1  0
 18 19  2  0
 19 20  1  0
 20 21  2  0
 21 16  1  0
  7 22  1  0
 22 23  2  0
 22 24  1  0
 24 25  1  0
 25 26  1  0
 26 27  1  0
 27 28  2  0
 28 29  1  0
 28 30  1  0
 30 31  2  0
 30 32  1  0
 32 33  2  0
 33 34  1  0
 34 35  2  0
 35 36  1  0
 36 37  2  0
 37 32  1  0
 37 38  1  0
 38 27  1  0
 38 39  2  0
  6 40  1  0
 40 41  2  0
 41  3  1  0
M  END
> <Smiles>
COc1ccc(N(CC(=O)NCCC[Te]c2ccccc2)C(=O)CCSC2=C(C)C(=O)c3ccccc3C2=O)cc1

> <ID>
CHEMBL3309874

> <standard_value>
467.74

> <IC50_uM>
0.46774

> <Activity>
Yes

> <pIC50>
6.329995489

> <BCI>
1

$$$$

  SciTegic03012415362D

 24 26  0  0  0  0            999 V2000
    7.7876   -1.5040    0.0000 C   0  0
    7.7897   -3.0040    0.0000 O   0  0
    6.4915   -3.7571    0.0000 C   0  0
    6.4915   -5.2571    0.0000 C   0  0
    5.1924   -6.0070    0.0000 C   0  0
    5.1893   -7.5079    0.0000 O   0  0
    3.8892   -8.2560    0.0000 C   0  0
    3.8934   -5.2570    0.0000 C   0  0
    3.8933   -3.7570    0.0000 C   0  0
    2.5951   -3.0039    0.0000 C   0  0
    1.2941   -3.7521    0.0000 C   0  0
   -0.0063   -4.4998    0.0000 N   0  0
    2.5973   -1.5031    0.0000 C   0  0
    1.2990   -0.7500    0.0000 C   0  0
    1.2990    0.7500    0.0000 C   0  0
    0.0000    1.5000    0.0000 C   0  0
   -1.2990    0.7500    0.0000 C   0  0
   -2.5981    1.5000    0.0000 C   0  0
   -3.8971    0.7500    0.0000 C   0  0
   -3.8971   -0.7500    0.0000 C   0  0
   -2.5981   -1.5000    0.0000 C   0  0
   -1.2990   -0.7500    0.0000 C   0  0
    0.0000   -1.5000    0.0000 N   0  0
    5.1925   -3.0070    0.0000 C   0  0
  1  2  1  0
  2  3  1  0
  3  4  2  0
  4  5  1  0
  5  6  1  0
  6  7  1  0
  5  8  2  0
  8  9  1  0
  9 10  1  0
 10 11  1  0
 11 12  3  0
 10 13  2  0
 13 14  1  0
 14 15  2  0
 15 16  1  0
 16 17  2  0
 17 18  1  0
 18 19  2  0
 19 20  1  0
 20 21  2  0
 21 22  1  0
 22 17  1  0
 22 23  2  0
 23 14  1  0
  9 24  2  0
 24  3  1  0
M  END
> <Smiles>
COc1cc(OC)cc(/C(C#N)=C/c2ccc3ccccc3n2)c1

> <ID>
CHEMBL3585477

> <standard_value>
476

> <IC50_uM>
0.476

> <Activity>
Yes

> <pIC50>
6.322393047

> <BCI>
1

$$$$

  SciTegic03012415362D

 22 24  0  0  0  0            999 V2000
    4.2146   -6.5095    0.0000 O   0  0
    3.3372   -5.2929    0.0000 C   0  0
    3.8056   -3.8679    0.0000 N   0  0
    2.5951   -3.0039    0.0000 C   0  0
    2.5973   -1.5031    0.0000 N   0  0
    1.2990   -0.7500    0.0000 C   0  0
    1.2990    0.7500    0.0000 C   0  0
    0.0000    1.5000    0.0000 C   0  0
   -1.2990    0.7500    0.0000 C   0  0
   -2.5981    1.5000    0.0000 O   0  0
   -1.2990   -0.7500    0.0000 C   0  0
    0.0000   -1.5000    0.0000 C   0  0
    1.3786   -3.8595    0.0000 S   0  0
    1.8372   -5.2877    0.0000 C   0  0
    0.9498   -6.4949    0.0000 C   0  0
   -0.5420   -6.3307    0.0000 C   0  0
   -1.4322   -7.5380    0.0000 C   0  0
   -2.9229   -7.3709    0.0000 C   0  0
   -3.5234   -5.9963    0.0000 C   0  0
   -5.0141   -5.8292    0.0000 F   0  0
   -2.6333   -4.7890    0.0000 C   0  0
   -1.1427   -4.9561    0.0000 C   0  0
  1  2  2  0
  2  3  1  0
  3  4  2  0
  4  5  1  0
  5  6  1  0
  6  7  2  0
  7  8  1  0
  8  9  2  0
  9 10  1  0
  9 11  1  0
 11 12  2  0
 12  6  1  0
  4 13  1  0
 13 14  1  0
 14  2  1  0
 14 15  2  0
 15 16  1  0
 16 17  2  0
 17 18  1  0
 18 19  2  0
 19 20  1  0
 19 21  1  0
 21 22  2  0
 22 16  1  0
M  END
> <Smiles>
O=C1N=C(Nc2ccc(O)cc2)S/C1=C\c1ccc(F)cc1

> <ID>
CHEMBL1253930

> <standard_value>
489.78

> <IC50_uM>
0.48978

> <Activity>
Yes

> <pIC50>
6.309998953

> <BCI>
1

$$$$

  SciTegic03012415362D

 23 26  0  0  0  0            999 V2000
    3.8983   -0.7459    0.0000 C   0  0
    2.6003   -1.4977    0.0000 O   0  0
    1.2990   -0.7500    0.0000 C   0  0
    1.2990    0.7500    0.0000 C   0  0
    0.0000    1.5000    0.0000 C   0  0
    0.0000    3.0000    0.0000 N   0  0
   -1.2991    3.7500    0.0000 N   0  0
   -2.5981    3.0000    0.0000 N   0  0
   -4.0238    3.4635    0.0000 C   0  0
   -4.6329    4.8331    0.0000 N   0  0
   -6.1247    4.9899    0.0000 C   0  0
   -7.0064    3.7763    0.0000 C   0  0
   -6.3963    2.4060    0.0000 C   0  0
   -4.9055    2.2500    0.0000 C   0  0
   -4.0238    1.0365    0.0000 C   0  0
   -4.4835   -0.3895    0.0000 N   0  0
   -3.4780   -1.5026    0.0000 O   0  0
   -2.5981    1.5000    0.0000 C   0  0
   -1.2990    0.7500    0.0000 C   0  0
   -1.2990   -0.7500    0.0000 C   0  0
    0.0000   -1.5000    0.0000 C   0  0
   -0.0031   -3.0008    0.0000 O   0  0
   -1.3032   -3.7490    0.0000 C   0  0
  1  2  1  0
  2  3  1  0
  3  4  2  0
  4  5  1  0
  5  6  1  0
  6  7  2  0
  7  8  1  0
  8  9  1  0
  9 10  2  0
 10 11  1  0
 11 12  2  0
 12 13  1  0
 13 14  2  0
 14  9  1  0
 14 15  1  0
 15 16  1  0
 16 17  2  0
 15 18  2  0
 18  8  1  0
 18 19  1  0
 19  5  2  0
 19 20  1  0
 20 21  2  0
 21  3  1  0
 21 22  1  0
 22 23  1  0
M  END
> <Smiles>
COc1cc2nnn3c4ncccc4c(N=O)c3c2cc1OC

> <ID>
CHEMBL3357020

> <standard_value>
490

> <IC50_uM>
0.49

> <Activity>
Yes

> <pIC50>
6.30980392

> <BCI>
1

$$$$

  SciTegic03012415362D

 22 25  0  0  0  0            999 V2000
    2.5981   -1.5000    0.0000 C   0  0
    1.2990   -0.7500    0.0000 C   0  0
    1.2990    0.7500    0.0000 N   0  0
    0.0000    1.5000    0.0000 C   0  0
    0.0031    3.0008    0.0000 N   0  0
   -1.2947    3.7531    0.0000 C   0  0
    1.3039    3.7494    0.0000 C   0  0
    1.3092    5.2494    0.0000 C   0  0
    2.6108    5.9949    0.0000 C   0  0
    3.9072    5.2405    0.0000 C   0  0
    5.3346    5.6990    0.0000 O   0  0
    6.2120    4.4825    0.0000 C   0  0
    5.3262    3.2720    0.0000 C   0  0
    3.9020    3.7405    0.0000 C   0  0
    2.6004    2.9949    0.0000 C   0  0
   -1.2990    0.7500    0.0000 C   0  0
   -2.7248    1.2135    0.0000 C   0  0
   -3.6065    0.0000    0.0000 C   0  0
   -5.1065    0.0000    0.0000 C   0  0
   -2.7248   -1.2135    0.0000 O   0  0
   -1.2990   -0.7500    0.0000 C   0  0
    0.0000   -1.5000    0.0000 N   0  0
  1  2  1  0
  2  3  2  0
  3  4  1  0
  4  5  1  0
  5  6  1  0
  5  7  1  0
  7  8  2  0
  8  9  1  0
  9 10  2  0
 10 11  1  0
 11 12  1  0
 12 13  2  0
 13 14  1  0
 14 10  1  0
 14 15  2  0
 15  7  1  0
  4 16  2  0
 16 17  1  0
 17 18  2  0
 18 19  1  0
 18 20  1  0
 20 21  1  0
 21 16  1  0
 21 22  2  0
 22  2  1  0
M  END
> <Smiles>
Cc1nc(N(C)c2ccc3occc3c2)c2cc(C)oc2n1

> <ID>
CHEMBL3403514

> <standard_value>
527

> <IC50_uM>
0.527

> <Activity>
Yes

> <pIC50>
6.278189385

> <BCI>
1

$$$$

  SciTegic03012415362D

 21 24  0  0  0  0            999 V2000
    3.8983   -0.7459    0.0000 C   0  0
    2.6003   -1.4977    0.0000 O   0  0
    1.2990   -0.7500    0.0000 C   0  0
    1.2990    0.7500    0.0000 C   0  0
    0.0000    1.5000    0.0000 C   0  0
    0.0000    3.0000    0.0000 N   0  0
   -1.2991    3.7500    0.0000 N   0  0
   -2.5981    3.0000    0.0000 C   0  0
   -4.0238    3.4635    0.0000 C   0  0
   -4.6329    4.8331    0.0000 C   0  0
   -6.1247    4.9899    0.0000 C   0  0
   -7.0064    3.7763    0.0000 C   0  0
   -6.3963    2.4060    0.0000 N   0  0
   -4.9055    2.2500    0.0000 C   0  0
   -4.0238    1.0365    0.0000 N   0  0
   -2.5981    1.5000    0.0000 C   0  0
   -1.2990    0.7500    0.0000 C   0  0
   -1.2990   -0.7500    0.0000 C   0  0
    0.0000   -1.5000    0.0000 C   0  0
   -0.0031   -3.0008    0.0000 O   0  0
   -1.3032   -3.7490    0.0000 C   0  0
  1  2  1  0
  2  3  1  0
  3  4  2  0
  4  5  1  0
  5  6  2  0
  6  7  1  0
  7  8  2  0
  8  9  1  0
  9 10  2  0
 10 11  1  0
 11 12  2  0
 12 13  1  0
 13 14  2  0
 14  9  1  0
 14 15  1  0
 15 16  1  0
 16  8  1  0
 16 17  2  0
 17  5  1  0
 17 18  1  0
 18 19  2  0
 19  3  1  0
 19 20  1  0
 20 21  1  0
M  END
> <Smiles>
COc1cc2nnc3c4cccnc4[nH]c3c2cc1OC

> <ID>
CHEMBL3357017

> <standard_value>
540

> <IC50_uM>
0.54

> <Activity>
Yes

> <pIC50>
6.26760624

> <BCI>
1

$$$$

  SciTegic03012415362D

 24 25  0  0  0  0            999 V2000
    3.8983   -0.7459    0.0000 C   0  0
    2.6003   -1.4977    0.0000 O   0  0
    1.2990   -0.7500    0.0000 C   0  0
    1.2990    0.7500    0.0000 C   0  0
    0.0000    1.5000    0.0000 C   0  0
    0.0000    3.0000    0.0000 N   0  0
   -1.2990    0.7500    0.0000 C   0  0
   -2.6003    1.4977    0.0000 C   0  0
   -3.8990    0.7455    0.0000 C   0  0
   -3.8978   -0.7554    0.0000 C   0  0
   -5.1947   -1.5091    0.0000 C   0  0
   -5.1905   -3.0091    0.0000 C   0  0
   -6.4897   -3.7605    0.0000 O   0  0
   -7.7898   -3.0124    0.0000 C   0  0
   -3.8893   -3.7554    0.0000 C   0  0
   -3.8820   -5.2563    0.0000 O   0  0
   -2.5798   -6.0007    0.0000 C   0  0
   -2.5924   -3.0018    0.0000 C   0  0
   -1.2890   -3.7458    0.0000 O   0  0
   -0.4251   -3.2422    0.0000 C   0  0
   -2.5967   -1.5018    0.0000 C   0  0
   -1.2990   -0.7500    0.0000 C   0  0
    0.0000   -1.5000    0.0000 C   0  0
    0.0000   -2.5000    0.0000 N   0  0
  1  2  1  0
  2  3  1  0
  3  4  2  0
  4  5  1  0
  5  6  1  0
  5  7  2  0
  7  8  1  0
  8  9  2  0
  9 10  1  0
 10 11  2  0
 11 12  1  0
 12 13  1  0
 13 14  1  0
 12 15  2  0
 15 16  1  0
 16 17  1  0
 15 18  1  0
 18 19  1  0
 19 20  1  0
 18 21  2  0
 21 10  1  0
  7 22  1  0
 22 23  2  0
 23  3  1  0
 23 24  1  0
M  END
> <Smiles>
COc1cc(N)c(/C=C\c2cc(OC)c(OC)c(OC)c2)cc1N.Cl

> <ID>
CHEMBL535418

> <standard_value>
550

> <IC50_uM>
0.55

> <Activity>
Yes

> <pIC50>
6.259637311

> <BCI>
1

> <RemovedSalts>
HCl

$$$$

  SciTegic03012415362D

 38 42  0  0  1  0            999 V2000
    3.8983   -0.7459    0.0000 C   0  0
    2.6003   -1.4977    0.0000 O   0  0
    1.2990   -0.7500    0.0000 C   0  0
    1.2990    0.7500    0.0000 C   0  0
    0.0000    1.5000    0.0000 C   0  0
   -1.2990    0.7500    0.0000 C   0  0
   -1.2990   -0.7500    0.0000 C   0  0
    0.0000   -1.5000    0.0000 C   0  0
    0.0000   -3.0000    0.0000 C   0  0
    1.2990   -3.7500    0.0000 O   0  0
   -1.2990   -3.7500    0.0000 C   0  0
   -1.2990   -5.2500    0.0000 C   0  0
    0.0000   -6.0000    0.0000 O   0  0
   -2.5981   -6.0000    0.0000 C   0  0
   -3.8971   -5.2500    0.0000 C   0  0
   -3.8971   -3.7500    0.0000 C   0  0
   -5.1961   -3.0000    0.0000 O   0  0
   -2.5981   -3.0000    0.0000 C   0  0
   -2.5981   -1.5000    0.0000 C   0  0
   -3.8971   -0.7500    0.0000 O   0  0
   -5.1961   -6.0000    0.0000 C   0  0
   -5.1961   -7.5000    0.0000 C   0  0  1  0  0  0
   -6.4764   -6.7184    0.0000 O   0  0
   -5.1597   -8.9800    0.0000 C   0  0
   -6.4588   -9.7299    0.0000 C   0  0
   -3.8610   -9.7305    0.0000 O   0  0
   -3.8971   -8.2500    0.0000 C   0  0
   -2.5981   -7.5000    0.0000 C   0  0  2  0  0  0
   -1.2998   -8.2531    0.0000 O   0  0
   -1.3020   -9.7539    0.0000 C   0  0  1  0  0  0
   -0.0056  -10.5085    0.0000 C   0  0
   -0.0108  -12.0085    0.0000 C   0  0  2  0  0  0
    1.2857  -12.7630    0.0000 N   0  0
   -1.3124  -12.7540    0.0000 C   0  0  2  0  0  0
   -1.3176  -14.2540    0.0000 O   0  0
   -2.6088  -11.9995    0.0000 C   0  0  2  0  0  0
   -3.9104  -12.7450    0.0000 C   0  0
   -2.6036  -10.4995    0.0000 O   0  0
  1  2  1  0
  2  3  1  0
  3  4  2  0
  4  5  1  0
  5  6  2  0
  6  7  1  0
  7  8  2  0
  8  3  1  0
  8  9  1  0
  9 10  2  0
  9 11  1  0
 11 12  2  0
 12 13  1  0
 12 14  1  0
 14 15  2  0
 15 16  1  0
 16 17  1  0
 16 18  2  0
 18 11  1  0
 18 19  1  0
 19  7  1  0
 19 20  2  0
 15 21  1  0
 21 22  1  0
 22 23  1  1
 22 24  1  0
 24 25  1  0
 24 26  2  0
 22 27  1  0
 27 28  1  0
 28 14  1  0
 28 29  1  1
 30 29  1  1
 30 31  1  0
 31 32  1  0
 32 33  1  6
 32 34  1  0
 34 35  1  6
 34 36  1  0
 36 37  1  6
 36 38  1  0
 38 30  1  0
M  END
> <Smiles>
COc1cccc2c1C(=O)c1c(O)c3c(c(O)c1C2=O)C[C@@](O)(C(C)=O)C[C@@H]3O[C@H]1C[C@H](N)[C@H](O)[C@H](C)O1

> <ID>
CHEMBL178

> <standard_value>
600

> <IC50_uM>
0.6

> <Activity>
Yes

> <pIC50>
6.22184875

> <BCI>
1

$$$$

  SciTegic03012415362D

 33 37  0  0  0  0            999 V2000
   -1.3156   -8.2471    0.0000 C   0  0
   -0.0155   -7.4989    0.0000 C   0  0
   -0.0125   -5.9981    0.0000 C   0  0
   -1.3103   -5.2459    0.0000 O   0  0
    1.2883   -5.2495    0.0000 N   0  0
    1.2935   -3.7495    0.0000 C   0  0
    2.5951   -3.0039    0.0000 C   0  0
    2.5973   -1.5031    0.0000 C   0  0
    1.2990   -0.7500    0.0000 C   0  0
    1.2990    0.7500    0.0000 C   0  0
    0.0000    1.5000    0.0000 C   0  0
   -1.2990    0.7500    0.0000 C   0  0
   -2.5981    1.5000    0.0000 C   0  0
   -3.8971    0.7500    0.0000 C   0  0
   -3.8971   -0.7500    0.0000 C   0  0
   -2.5981   -1.5000    0.0000 C   0  0
   -1.2990   -0.7500    0.0000 C   0  0
    0.0000   -1.5000    0.0000 C   0  0
    3.8915   -3.7585    0.0000 C   0  0
    5.1932   -3.0130    0.0000 O   0  0
    3.8864   -5.2585    0.0000 C   0  0
    5.1820   -6.0160    0.0000 C   0  0
    5.1746   -7.5168    0.0000 C   0  0
    6.4685   -8.2759    0.0000 C   0  0
    6.4581   -9.7759    0.0000 C   0  0
    5.1539  -10.5169    0.0000 C   0  0
    5.1435  -12.0168    0.0000 C   0  0
    3.8393  -12.7578    0.0000 C   0  0
    2.5455  -11.9989    0.0000 C   0  0
    2.5559  -10.4989    0.0000 C   0  0
    3.8601   -9.7579    0.0000 C   0  0
    3.8704   -8.2579    0.0000 C   0  0
    2.5847   -6.0040    0.0000 C   0  0
  1  2  2  0
  2  3  1  0
  3  4  2  0
  3  5  1  0
  5  6  1  0
  6  7  1  0
  7  8  2  0
  8  9  1  0
  9 10  2  0
 10 11  1  0
 11 12  2  0
 12 13  1  0
 13 14  2  0
 14 15  1  0
 15 16  2  0
 16 17  1  0
 17 12  1  0
 17 18  2  0
 18  9  1  0
  7 19  1  0
 19 20  2  0
 19 21  1  0
 21 22  2  0
 22 23  1  0
 23 24  2  0
 24 25  1  0
 25 26  2  0
 26 27  1  0
 27 28  2  0
 28 29  1  0
 29 30  2  0
 30 31  1  0
 31 26  1  0
 31 32  2  0
 32 23  1  0
 21 33  1  0
 33  5  1  0
M  END
> <Smiles>
C=CC(=O)N1C/C(=C\c2ccc3ccccc3c2)C(=O)/C(=C/c2ccc3ccccc3c2)C1

> <ID>
CHEMBL1795870

> <standard_value>
600

> <IC50_uM>
0.6

> <Activity>
Yes

> <pIC50>
6.22184875

> <BCI>
1

$$$$

  SciTegic03012415362D

 22 24  0  0  0  0            999 V2000
    2.5951   -3.0031    0.0000 C   0  0
    2.5973   -1.5031    0.0000 O   0  0
    1.2990   -0.7500    0.0000 C   0  0
    1.2990    0.7500    0.0000 C   0  0
    0.0000    1.5000    0.0000 C   0  0
   -1.2990    0.7500    0.0000 C   0  0
   -2.5981    1.5000    0.0000 N   0  0
   -3.8971    0.7500    0.0000 C   0  0
   -5.1968    1.5003    0.0000 C   0  0
   -5.1993    3.0004    0.0000 C   0  0
   -6.4995    3.7483    0.0000 C   0  0
   -7.7974    2.9963    0.0000 C   0  0
   -7.7950    1.4963    0.0000 C   0  0
   -9.0920    0.7411    0.0000 N   0  0
   -9.0875   -0.7589    0.0000 C   0  0
  -10.3935    1.4868    0.0000 C   0  0
   -6.4948    0.7483    0.0000 C   0  0
   -3.8971   -0.7500    0.0000 C   0  0
   -2.5981   -1.5000    0.0000 C   0  0
   -2.5981   -3.0000    0.0000 O   0  0
   -1.2990   -0.7500    0.0000 C   0  0
    0.0000   -1.5000    0.0000 C   0  0
  1  2  1  0
  2  3  1  0
  3  4  2  0
  4  5  1  0
  5  6  2  0
  6  7  1  0
  7  8  2  0
  8  9  1  0
  9 10  2  0
 10 11  1  0
 11 12  2  0
 12 13  1  0
 13 14  1  0
 14 15  1  0
 14 16  1  0
 13 17  2  0
 17  9  1  0
  8 18  1  0
 18 19  2  0
 19 20  1  0
 19 21  1  0
 21  6  1  0
 21 22  2  0
 22  3  1  0
M  END
> <Smiles>
COc1ccc2nc(-c3cccc(N(C)C)c3)cc(O)c2c1

> <ID>
CHEMBL14290

> <standard_value>
602.56

> <IC50_uM>
0.60256

> <Activity>
Yes

> <pIC50>
6.219999702

> <BCI>
1

$$$$

  SciTegic03012415362D

 64 76  0  0  1  0            999 V2000
    2.5981   -1.5000    0.0000 C   0  0
    1.2990   -0.7500    0.0000 C   0  0  1  0  0  0
    1.2990    0.7500    0.0000 C   0  0  1  0  0  0
    2.4133    1.7530    0.0000 C   0  0
    1.8032    3.1233    0.0000 C   0  0  1  0  0  0
    2.5532    4.4223    0.0000 O   0  0
    0.3114    2.9665    0.0000 C   0  0
   -0.9815    3.8184    0.0000 C   0  0
   -2.3518    3.2082    0.0000 C   0  0
   -2.5085    1.7164    0.0000 C   0  0
   -1.2990    0.7500    0.0000 C   0  0
    0.0000    1.5000    0.0000 C   0  0
   -1.2990   -0.7500    0.0000 O   0  0
    0.0000   -1.5000    0.0000 C   0  0  3  0  0  0
    0.5753   -2.9306    0.0000 O   0  0
   -0.5394   -3.9343    0.0000 C   0  0
    0.8399   -4.5238    0.0000 C   0  0
   -1.7659   -4.7978    0.0000 C   0  0
   -1.8384   -3.1843    0.0000 C   0  0
   -1.5266   -1.7170    0.0000 C   0  0  1  0  0  0
   -2.5504   -0.6208    0.0000 O   0  0
   -3.5650    4.0900    0.0000 C   0  0  1  0  0  0
   -3.7219    2.5982    0.0000 C   0  0
   -4.9353    3.4798    0.0000 C   0  0
   -6.1488    4.3614    0.0000 C   0  0
   -7.5191    3.7513    0.0000 N   0  0
   -8.7327    4.6329    0.0000 C   0  0
   -8.5760    6.1247    0.0000 C   0  0
   -7.2057    6.7349    0.0000 N   0  0
   -5.9921    5.8532    0.0000 C   0  0
   -4.6218    6.4634    0.0000 C   0  0
   -3.4083    5.5818    0.0000 C   0  0  2  0  0  0
   -2.0380    6.1919    0.0000 C   0  0
   -0.8244    5.3103    0.0000 C   0  0
   -9.7895    7.0063    0.0000 C   0  0
  -11.1598    6.3962    0.0000 C   0  0  1  0  0  0
  -11.0031    7.8879    0.0000 C   0  0
  -11.3166    4.9044    0.0000 C   0  0  1  0  0  0
  -12.6869    4.2942    0.0000 C   0  0
  -13.9004    5.1758    0.0000 C   0  0
  -13.7437    6.6676    0.0000 C   0  0  1  0  0  0
  -14.9573    7.5492    0.0000 C   0  0
  -16.4237    7.2603    0.0000 C   0  0
  -17.1654    8.5641    0.0000 C   0  0  2  0  0  0
  -18.5086    9.2101    0.0000 O   0  0
  -18.3275   10.6992    0.0000 C   0  0  1  0  0  0
  -16.8553   10.9870    0.0000 C   0  0
  -16.1546    9.6724    0.0000 C   0  0  1  0  0  0
  -15.4666   10.3981    0.0000 O   0  0
  -14.8005    9.0410    0.0000 C   0  0  2  0  0  0
  -14.7918   10.0410    0.0000 C   0  0
  -13.4302    9.6512    0.0000 C   0  0  2  0  0  0
  -13.2735   11.1430    0.0000 O   0  0
  -12.2167    8.7696    0.0000 C   0  0
  -12.3734    7.2778    0.0000 C   0  0  2  0  0  0
  -19.0159   12.0765    0.0000 O   0  0
  -20.5061   11.9050    0.0000 C   0  0  2  0  0  0
  -21.9648   11.5555    0.0000 C   0  0
  -20.0378   13.3169    0.0000 C   0  0
  -18.5738   13.6438    0.0000 O   0  0
  -20.8035   10.4348    0.0000 C   0  0
  -19.4971    9.6976    0.0000 C   0  0  1  0  0  0
  -19.3516    8.2047    0.0000 O   0  0
  -10.1030    4.0227    0.0000 C   0  0
  2  1  1  6
  2  3  1  0
  3  4  1  6
  4  5  1  0
  5  6  1  6
  5  7  1  0
  7  8  2  0
  8  9  1  0
  9 10  2  0
 10 11  1  0
 11 12  2  0
 12  7  1  0
 12  3  1  0
 11 13  1  0
 14 13  1  4
 14  2  1  0
 14 15  1  0
 15 16  1  0
 16 17  1  0
 16 18  1  0
 16 19  1  0
 19 20  1  0
 20 14  1  0
 20 21  1  1
  9 22  1  0
 22 23  1  6
 22 24  1  0
 24 25  1  0
 25 26  2  0
 26 27  1  0
 27 28  2  0
 28 29  1  0
 29 30  2  0
 30 25  1  0
 30 31  1  0
 32 31  1  6
 32 22  1  0
 32 33  1  0
 33 34  1  0
 34  8  1  0
 28 35  1  0
 35 36  1  0
 36 37  1  6
 36 38  1  0
 38 39  1  6
 39 40  1  0
 41 40  1  1
 41 42  1  0
 42 43  2  0
 44 43  1  6
 44 45  1  0
 46 45  1  6
 46 47  1  0
 47 48  1  0
 48 44  1  0
 48 49  1  1
 48 50  1  0
 50 42  1  0
 50 51  1  6
 50 52  1  0
 52 53  1  6
 52 54  1  0
 55 54  1  6
 55 41  1  0
 55 36  1  0
 46 56  1  0
 56 57  1  0
 57 58  1  6
 57 59  1  0
 59 60  1  0
 57 61  1  0
 61 62  1  0
 62 46  1  0
 62 63  1  6
 38 64  1  0
 64 27  1  0
M  END
> <Smiles>
C[C@H]1[C@H]2C[C@@H](O)c3c4c(cc(c32)OC12OC(C)(C)C[C@H]2O)[C@@]1(C)Cc2nc3c(nc2C[C@@H]1CC4)C[C@@]1(C)[C@@H](CC[C@H]2C4=C[C@@H]5O[C@@]6(C[C@]5(O)[C@@]4(C)[C@H](O)C[C@@H]21)O[C@](C)(CO)C[C@H]6O)C3

> <ID>
CHEMBL402206

> <standard_value>
610

> <IC50_uM>
0.61

> <Activity>
Yes

> <pIC50>
6.214670165

> <BCI>
1

$$$$

  SciTegic03012415362D

 24 27  0  0  0  0            999 V2000
    6.9841    5.2554    0.0000 C   0  0
    5.5263    4.9023    0.0000 O   0  0
    5.1019    3.4627    0.0000 C   0  0
    3.6446    3.1076    0.0000 C   0  0
    3.2235    1.6679    0.0000 C   0  0
    4.2568    0.5878    0.0000 C   0  0
    3.9511   -0.8815    0.0000 C   0  0
    4.9531   -1.9978    0.0000 C   0  0
    4.2010   -3.2956    0.0000 N   0  0
    2.7343   -2.9815    0.0000 N   0  0
    2.5987   -1.5004    0.0000 N   0  0
    1.2990   -0.7500    0.0000 C   0  0
    1.2990    0.7500    0.0000 C   0  0
    0.0000    1.5000    0.0000 C   0  0
    0.0031    3.0008    0.0000 O   0  0
    1.3032    3.7490    0.0000 C   0  0
   -1.2990    0.7500    0.0000 C   0  0
   -1.2990   -0.7500    0.0000 C   0  0
    0.0000   -1.5000    0.0000 C   0  0
   -2.7248   -1.2135    0.0000 O   0  0
   -3.6065    0.0000    0.0000 C   0  0
   -2.7248    1.2135    0.0000 O   0  0
    5.7171    0.9385    0.0000 C   0  0
    6.1382    2.3782    0.0000 C   0  0
  1  2  1  0
  2  3  1  0
  3  4  2  0
  4  5  1  0
  5  6  2  0
  6  7  1  0
  7  8  2  0
  8  9  1  0
  9 10  2  0
 10 11  1  0
 11  7  1  0
 11 12  1  0
 12 13  2  0
 13 14  1  0
 14 15  1  0
 15 16  1  0
 14 17  2  0
 17 18  1  0
 18 19  2  0
 19 12  1  0
 18 20  1  0
 20 21  1  0
 21 22  1  0
 22 17  1  0
  6 23  1  0
 23 24  2  0
 24  3  1  0
M  END
> <Smiles>
COc1ccc(-c2cnnn2-c2cc(OC)c3c(c2)OCO3)cc1

> <ID>
CHEMBL3105440

> <standard_value>
611

> <IC50_uM>
0.611

> <Activity>
Yes

> <pIC50>
6.21395879

> <BCI>
1

$$$$

  SciTegic03012415362D

 21 24  0  0  0  0            999 V2000
    2.5981   -1.5000    0.0000 O   0  0
    1.2990   -0.7500    0.0000 C   0  0
    1.2990    0.7500    0.0000 C   0  0
    0.0000    1.5000    0.0000 C   0  0
    0.0000    3.0008    0.0000 C   0  0
    1.2978    3.7529    0.0000 C   0  0
    1.2954    5.2529    0.0000 C   0  0
   -0.0048    6.0009    0.0000 C   0  0
   -1.3026    5.2488    0.0000 C   0  0
   -2.6029    5.9967    0.0000 Cl  0  0
   -1.3002    3.7488    0.0000 C   0  0
   -1.2990    0.7500    0.0000 N   0  0
   -1.2990   -0.7500    0.0000 C   0  0
   -2.5981   -1.5000    0.0000 C   0  0
   -2.5981   -3.0000    0.0000 C   0  0
   -1.2990   -3.7500    0.0000 C   0  0
    0.0000   -3.0000    0.0000 C   0  0
    0.0000   -1.5000    0.0000 C   0  0
   -1.6105   -5.2165    0.0000 O   0  0
   -3.1022   -5.3733    0.0000 C   0  0
   -3.7124   -4.0030    0.0000 O   0  0
  1  2  1  0
  2  3  2  0
  3  4  1  0
  4  5  1  0
  5  6  2  0
  6  7  1  0
  7  8  2  0
  8  9  1  0
  9 10  1  0
  9 11  2  0
 11  5  1  0
  4 12  2  0
 12 13  1  0
 13 14  2  0
 14 15  1  0
 15 16  2  0
 16 17  1  0
 17 18  2  0
 18  2  1  0
 18 13  1  0
 16 19  1  0
 19 20  1  0
 20 21  1  0
 21 15  1  0
M  END
> <Smiles>
Oc1cc(-c2cccc(Cl)c2)nc2cc3c(cc12)OCO3

> <ID>
CHEMBL50809

> <standard_value>
616.6

> <IC50_uM>
0.6166

> <Activity>
Yes

> <pIC50>
6.20999648

> <BCI>
1

$$$$

  SciTegic03012415362D

 30 32  0  0  0  0            999 V2000
    6.4964    0.7591    0.0000 O   0  0
    6.4990   -0.7409    0.0000 C   0  0
    5.2003   -1.4932    0.0000 N   0  0
    3.8990   -0.7455    0.0000 N   0  0
    2.6003   -1.4977    0.0000 C   0  0
    1.2990   -0.7500    0.0000 C   0  0
    1.2990    0.7500    0.0000 C   0  0
    0.0000    1.5000    0.0000 C   0  0
   -1.2990    0.7500    0.0000 C   0  0
   -2.5981    1.5000    0.0000 O   0  0
   -1.2990   -0.7500    0.0000 C   0  0
    0.0000   -1.5000    0.0000 C   0  0
    0.0000   -3.0000    0.0000 O   0  0
    7.8003   -1.4887    0.0000 C   0  0
    9.0994   -0.7387    0.0000 C   0  0
   10.3984   -1.4887    0.0000 C   0  0
   10.3985   -2.9887    0.0000 C   0  0
    9.0995   -3.7387    0.0000 C   0  0
    9.0964   -5.2395    0.0000 N   0  0
    7.7956   -5.9881    0.0000 C   0  0
    7.7904   -7.4882    0.0000 C   0  0
    6.4888   -8.2337    0.0000 C   0  0
    5.1923   -7.4792    0.0000 N   0  0
    5.1975   -5.9792    0.0000 C   0  0
    3.9003   -5.2244    0.0000 C   0  0
    2.5982   -5.9691    0.0000 F   0  0
    3.9059   -3.7244    0.0000 F   0  0
    2.6042   -4.4693    0.0000 F   0  0
    6.4991   -5.2337    0.0000 C   0  0
    7.8004   -2.9887    0.0000 C   0  0
  1  2  2  0
  2  3  1  0
  3  4  1  0
  4  5  2  0
  5  6  1  0
  6  7  2  0
  7  8  1  0
  8  9  2  0
  9 10  1  0
  9 11  1  0
 11 12  2  0
 12  6  1  0
 12 13  1  0
  2 14  1  0
 14 15  2  0
 15 16  1  0
 16 17  2  0
 17 18  1  0
 18 19  1  0
 19 20  1  0
 20 21  2  0
 21 22  1  0
 22 23  2  0
 23 24  1  0
 24 25  1  0
 25 26  1  0
 25 27  1  0
 25 28  1  0
 24 29  2  0
 29 20  1  0
 18 30  2  0
 30 14  1  0
M  END
> <Smiles>
O=C(N/N=C/c1ccc(O)cc1O)c1cccc(Nc2ccnc(C(F)(F)F)c2)c1

> <ID>
CHEMBL2440590

> <standard_value>
630.96

> <IC50_uM>
0.63096

> <Activity>
Yes

> <pIC50>
6.199998172

> <BCI>
1

$$$$

  SciTegic03012415362D

 29 31  0  0  0  0            999 V2000
    6.4964    0.7591    0.0000 O   0  0
    6.4990   -0.7409    0.0000 C   0  0
    5.2003   -1.4932    0.0000 N   0  0
    3.8990   -0.7455    0.0000 N   0  0
    2.6003   -1.4977    0.0000 C   0  0
    1.2990   -0.7500    0.0000 C   0  0
    1.2990    0.7500    0.0000 C   0  0
    0.0000    1.5000    0.0000 C   0  0
   -1.2990    0.7500    0.0000 C   0  0
   -1.2990   -0.7500    0.0000 C   0  0
    0.0000   -1.5000    0.0000 C   0  0
    0.0000   -3.0000    0.0000 O   0  0
    7.8003   -1.4887    0.0000 C   0  0
    7.8004   -2.9887    0.0000 C   0  0
    9.0995   -3.7387    0.0000 C   0  0
   10.3985   -2.9887    0.0000 C   0  0
   10.3984   -1.4887    0.0000 C   0  0
    9.0994   -0.7387    0.0000 C   0  0
    9.1025    0.7621    0.0000 N   0  0
   10.4033    1.5107    0.0000 C   0  0
   10.4086    3.0107    0.0000 C   0  0
   11.7102    3.7562    0.0000 C   0  0
   13.0067    3.0017    0.0000 N   0  0
   13.0015    1.5017    0.0000 C   0  0
   14.2986    0.7468    0.0000 C   0  0
   15.6007    1.4915    0.0000 F   0  0
   14.2929   -0.7532    0.0000 F   0  0
   15.5947   -0.0083    0.0000 F   0  0
   11.6998    0.7562    0.0000 C   0  0
  1  2  2  0
  2  3  1  0
  3  4  1  0
  4  5  2  0
  5  6  1  0
  6  7  2  0
  7  8  1  0
  8  9  2  0
  9 10  1  0
 10 11  2  0
 11  6  1  0
 11 12  1  0
  2 13  1  0
 13 14  2  0
 14 15  1  0
 15 16  2  0
 16 17  1  0
 17 18  2  0
 18 13  1  0
 18 19  1  0
 19 20  1  0
 20 21  2  0
 21 22  1  0
 22 23  2  0
 23 24  1  0
 24 25  1  0
 25 26  1  0
 25 27  1  0
 25 28  1  0
 24 29  2  0
 29 20  1  0
M  END
> <Smiles>
O=C(N/N=C/c1ccccc1O)c1ccccc1Nc1ccnc(C(F)(F)F)c1

> <ID>
CHEMBL2440595

> <standard_value>
630.96

> <IC50_uM>
0.63096

> <Activity>
Yes

> <pIC50>
6.199998172

> <BCI>
1

$$$$

  SciTegic03012415362D

 19 21  0  0  0  0            999 V2000
    2.6531  -10.0886    0.0000 Cl  0  0
    1.1844   -9.7837    0.0000 C   0  0
    0.7130   -8.3588    0.0000 C   0  0
   -0.7552   -8.0517    0.0000 C   0  0
   -1.2234   -6.6267    0.0000 C   0  0
   -0.2234   -5.5086    0.0000 C   0  0
   -0.6890   -4.0818    0.0000 C   0  0
    0.3114   -2.9665    0.0000 N   0  0
    1.8032   -3.1233    0.0000 C   0  0
    2.4133   -1.7530    0.0000 N   0  0
    1.2990   -0.7500    0.0000 C   0  0
    1.2990    0.7500    0.0000 C   0  0
    2.5981    1.5000    0.0000 Cl  0  0
    0.0000    1.5000    0.0000 N   0  0
   -1.2990    0.7500    0.0000 C   0  0
   -1.2990   -0.7500    0.0000 N   0  0
    0.0000   -1.5000    0.0000 C   0  0
    1.2449   -5.8157    0.0000 C   0  0
    1.7131   -7.2408    0.0000 C   0  0
  1  2  1  0
  2  3  1  0
  3  4  2  0
  4  5  1  0
  5  6  2  0
  6  7  1  0
  7  8  1  0
  8  9  1  0
  9 10  2  0
 10 11  1  0
 11 12  2  0
 12 13  1  0
 12 14  1  0
 14 15  2  0
 15 16  1  0
 16 17  2  0
 17 11  1  0
 17  8  1  0
  6 18  1  0
 18 19  2  0
 19  3  1  0
M  END
> <Smiles>
ClCc1ccc(Cn2cnc3c(Cl)ncnc32)cc1

> <ID>
CHEMBL2262440

> <standard_value>
640

> <IC50_uM>
0.64

> <Activity>
Yes

> <pIC50>
6.193820026

> <BCI>
1

$$$$

  SciTegic03012415362D

 32 34  0  0  1  0            999 V2000
    2.5981   -1.5000    0.0000 N   0  0
    1.2990   -0.7500    0.0000 C   0  0
    1.2990    0.7500    0.0000 N   0  0
    0.0000    1.5000    0.0000 C   0  0
    0.0000    3.0000    0.0000 N   0  0
   -1.2990    0.7500    0.0000 C   0  0
   -2.7248    1.2135    0.0000 C   0  0
   -3.1905    2.6376    0.0000 C   0  0
   -4.6589    2.9478    0.0000 C   0  0
   -5.1253    4.3743    0.0000 C   0  0
   -6.5938    4.6845    0.0000 C   0  0
   -7.0621    6.1095    0.0000 C   0  0
   -8.5303    6.4166    0.0000 C   0  0
   -9.5303    5.2986    0.0000 C   0  0
  -11.0000    5.6028    0.0000 C   0  0
  -11.4707    7.0270    0.0000 O   0  0
  -11.9990    4.4827    0.0000 N   0  0
  -13.4687    4.7869    0.0000 C   0  0  1  0  0  0
  -14.4677    3.6669    0.0000 C   0  0
  -15.9373    3.9711    0.0000 C   0  0
  -16.9363    2.8510    0.0000 C   0  0
  -18.4052    3.1550    0.0000 O   0  0
  -16.4656    1.4268    0.0000 O   0  0
  -13.9426    6.2110    0.0000 C   0  0
  -15.4118    6.5134    0.0000 O   0  0
  -12.9464    7.3324    0.0000 O   0  0
   -9.0621    3.8735    0.0000 C   0  0
   -7.5939    3.5665    0.0000 C   0  0
   -3.6065    0.0000    0.0000 C   0  0
   -2.7248   -1.2135    0.0000 O   0  0
   -1.2990   -0.7500    0.0000 C   0  0
    0.0000   -1.5000    0.0000 N   0  0
  1  2  1  0
  2  3  2  0
  3  4  1  0
  4  5  1  0
  4  6  2  0
  6  7  1  0
  7  8  1  0
  8  9  1  0
  9 10  1  0
 10 11  1  0
 11 12  2  0
 12 13  1  0
 13 14  2  0
 14 15  1  0
 15 16  2  0
 15 17  1  0
 18 17  1  1
 18 19  1  0
 19 20  1  0
 20 21  1  0
 21 22  2  0
 21 23  1  0
 18 24  1  0
 24 25  2  0
 24 26  1  0
 14 27  1  0
 27 28  2  0
 28 11  1  0
  7 29  2  0
 29 30  1  0
 30 31  1  0
 31  6  1  0
 31 32  2  0
 32  2  1  0
M  END
> <Smiles>
Nc1nc(N)c2c(CCCc3ccc(C(=O)N[C@@H](CCC(=O)O)C(=O)O)cc3)coc2n1

> <ID>
CHEMBL223279

> <standard_value>
648

> <IC50_uM>
0.648

> <Activity>
Yes

> <pIC50>
6.188424994

> <BCI>
1

$$$$

  SciTegic03012415362D

 35 40  0  0  1  0            999 V2000
    2.5228   -3.0436    0.0000 C   0  0
    1.2626   -2.2300    0.0000 C   0  0
    1.2990   -0.7500    0.0000 C   0  0  1  0  0  0
    2.5793    0.0316    0.0000 O   0  0
    1.2990    0.7500    0.0000 C   0  0
    2.5981    1.5000    0.0000 O   0  0
    0.0000    1.5000    0.0000 O   0  0
   -1.2990    0.7500    0.0000 C   0  0
   -1.2990   -0.7500    0.0000 C   0  0
    0.0000   -1.5000    0.0000 C   0  0
    0.0000   -3.0000    0.0000 C   0  0
   -1.2990   -3.7500    0.0000 C   0  0
   -2.5981   -3.0000    0.0000 N   0  0
   -2.5981   -1.5000    0.0000 C   0  0
   -3.8971   -0.7500    0.0000 O   0  0
   -3.7124   -4.0030    0.0000 C   0  0  3  0  0  0
   -5.1785   -3.6942    0.0000 C   0  0
   -6.1813   -4.8108    0.0000 C   0  0
   -5.7156   -6.2367    0.0000 O   0  0
   -7.6499   -4.5015    0.0000 N   0  0
   -8.6539   -5.6161    0.0000 C   0  0
  -10.1211   -5.3040    0.0000 C   0  0
  -10.5844   -3.8773    0.0000 C   0  0
   -9.5805   -2.7627    0.0000 C   0  0
   -8.1133   -3.0748    0.0000 C   0  0
   -3.1022   -5.3733    0.0000 C   0  0
   -3.7125   -6.7424    0.0000 C   0  0
   -2.8308   -7.9559    0.0000 C   0  0
   -3.4409   -9.3262    0.0000 C   0  0
   -2.5592  -10.5397    0.0000 C   0  0
   -1.0674  -10.3829    0.0000 C   0  0
   -0.4573   -9.0126    0.0000 C   0  0
   -1.3390   -7.7991    0.0000 C   0  0
   -0.7289   -6.4288    0.0000 N   0  0
   -1.6105   -5.2165    0.0000 C   0  0
  1  2  1  0
  2  3  1  0
  3  4  1  1
  3  5  1  0
  5  6  2  0
  5  7  1  0
  7  8  1  0
  8  9  1  0
  9 10  2  0
 10  3  1  0
 10 11  1  0
 11 12  2  0
 12 13  1  0
 13 14  1  0
 14  9  1  0
 14 15  2  0
 13 16  1  0
 16 17  1  4
 17 18  1  0
 18 19  2  0
 18 20  1  0
 20 21  1  0
 21 22  1  0
 22 23  1  0
 23 24  1  0
 24 25  1  0
 25 20  1  0
 16 26  1  0
 26 27  2  0
 27 28  1  0
 28 29  2  0
 29 30  1  0
 30 31  2  0
 31 32  1  0
 32 33  2  0
 33 28  1  0
 33 34  1  0
 34 35  2  0
 35 26  1  0
 35 12  1  0
M  END
> <Smiles>
CC[C@@]1(O)C(=O)OCc2c1cc1n(c2=O)C(CC(=O)N2CCCCC2)c2cc3ccccc3nc2-1

> <ID>
CHEMBL43538

> <standard_value>
650

> <IC50_uM>
0.65

> <Activity>
Yes

> <pIC50>
6.187086643

> <BCI>
1

$$$$

  SciTegic03012415362D

 24 26  0  0  0  0            999 V2000
    7.7876   -1.5040    0.0000 C   0  0
    7.7897   -3.0040    0.0000 O   0  0
    6.4915   -3.7571    0.0000 C   0  0
    6.4915   -5.2571    0.0000 C   0  0
    5.1924   -6.0070    0.0000 C   0  0
    5.1893   -7.5079    0.0000 O   0  0
    3.8892   -8.2560    0.0000 C   0  0
    3.8934   -5.2570    0.0000 C   0  0
    3.8933   -3.7570    0.0000 C   0  0
    2.5951   -3.0039    0.0000 C   0  0
    1.2941   -3.7521    0.0000 C   0  0
   -0.0063   -4.4998    0.0000 N   0  0
    2.5973   -1.5031    0.0000 C   0  0
    1.2990   -0.7500    0.0000 C   0  0
    1.2990    0.7500    0.0000 C   0  0
    0.0000    1.5000    0.0000 N   0  0
   -1.2990    0.7500    0.0000 C   0  0
   -2.5981    1.5000    0.0000 C   0  0
   -3.8971    0.7500    0.0000 C   0  0
   -3.8971   -0.7500    0.0000 C   0  0
   -2.5981   -1.5000    0.0000 C   0  0
   -1.2990   -0.7500    0.0000 C   0  0
    0.0000   -1.5000    0.0000 C   0  0
    5.1925   -3.0070    0.0000 C   0  0
  1  2  1  0
  2  3  1  0
  3  4  2  0
  4  5  1  0
  5  6  1  0
  6  7  1  0
  5  8  2  0
  8  9  1  0
  9 10  1  0
 10 11  1  0
 11 12  3  0
 10 13  2  0
 13 14  1  0
 14 15  2  0
 15 16  1  0
 16 17  2  0
 17 18  1  0
 18 19  2  0
 19 20  1  0
 20 21  2  0
 21 22  1  0
 22 17  1  0
 22 23  2  0
 23 14  1  0
  9 24  2  0
 24  3  1  0
M  END
> <Smiles>
COc1cc(OC)cc(/C(C#N)=C/c2cnc3ccccc3c2)c1

> <ID>
CHEMBL3585479

> <standard_value>
654

> <IC50_uM>
0.654

> <Activity>
Yes

> <pIC50>
6.184422252

> <BCI>
1

$$$$

  SciTegic03012415362D

 29 33  0  0  1  0            999 V2000
    2.5981    0.0000    0.0000 C   0  0
    1.2990   -0.7500    0.0000 C   0  0  2  0  0  0
    1.2990    0.7500    0.0000 C   0  0
    0.0000    1.5000    0.0000 C   0  0
   -1.2990    0.7500    0.0000 C   0  0  1  0  0  0
   -2.5981    1.5000    0.0000 O   0  0
   -1.2990   -0.7500    0.0000 C   0  0
    0.0000   -1.5000    0.0000 C   0  0
    0.0000   -3.0000    0.0000 C   0  0
    1.2990   -3.7500    0.0000 C   0  0
    2.5981   -3.0000    0.0000 C   0  0  2  0  0  0
    2.5981   -1.5000    0.0000 C   0  0  2  0  0  0
    3.8971   -0.7500    0.0000 C   0  0  1  0  0  0
    3.8971    0.7500    0.0000 O   0  0
    5.1962   -1.5000    0.0000 C   0  0
    5.1962   -3.0000    0.0000 C   0  0  2  0  0  0
    6.5657   -2.3882    0.0000 C   0  0
    6.3051   -3.9936    0.0000 C   0  0  1  0  0  0
    7.7727   -3.6799    0.0000 C   0  0
    8.3390   -2.2963    0.0000 C   0  0
    9.8254   -2.0952    0.0000 C   0  0
   10.7428   -3.2819    0.0000 C   0  0
   12.2293   -3.0808    0.0000 O   0  0
   10.1738   -4.6698    0.0000 O   0  0
    8.6873   -4.8709    0.0000 C   0  0
    5.6950   -5.3640    0.0000 C   0  0
    4.2032   -5.2072    0.0000 C   0  0
    3.8971   -3.7500    0.0000 C   0  0  2  0  0  0
    2.6825   -4.6302    0.0000 O   0  0
  2  1  1  1
  2  3  1  0
  3  4  1  0
  4  5  1  0
  5  6  1  6
  5  7  1  0
  7  8  2  0
  8  2  1  0
  8  9  1  0
  9 10  1  0
 11 10  1  6
 12 11  1  1
 12  2  1  0
 12 13  1  0
 13 14  1  1
 13 15  1  0
 15 16  1  0
 16 17  1  1
 16 18  1  0
 18 19  1  1
 19 20  1  0
 20 21  2  0
 21 22  1  0
 22 23  2  0
 22 24  1  0
 24 25  1  0
 25 19  2  0
 18 26  1  0
 26 27  1  0
 27 28  1  0
 28 11  1  0
 28 16  1  0
 28 29  1  1
M  END
> <Smiles>
C[C@]12CC[C@@H](O)C=C1CC[C@@H]1[C@@H]2[C@@H](O)C[C@]2(C)[C@@H](c3ccc(=O)oc3)CC[C@]12O

> <ID>
CHEMBL4867036

> <standard_value>
656

> <IC50_uM>
0.656

> <Activity>
Yes

> <pIC50>
6.183096161

> <BCI>
1

$$$$

  SciTegic03012415362D

 29 33  0  0  1  0            999 V2000
    5.9843   -1.7144    0.0000 C   0  0
    5.6526   -0.2515    0.0000 O   0  0
    4.2194    0.1938    0.0000 C   0  0
    3.1198   -0.8265    0.0000 C   0  0
    1.6852   -0.3846    0.0000 C   0  0
    1.3514    1.0778    0.0000 C   0  0
    2.4522    2.0983    0.0000 C   0  0
    3.8856    1.6562    0.0000 C   0  0
    4.9837    2.6793    0.0000 O   0  0
    4.6476    4.1420    0.0000 C   0  0
    3.2135    4.5816    0.0000 O   0  0
    5.7457    5.1651    0.0000 C   0  0
    5.5506    6.6395    0.0000 C   0  0
    6.9110    7.2694    0.0000 C   0  0
    7.3531    8.7028    0.0000 C   0  0
    8.8155    9.0366    0.0000 C   0  0
    9.8358    7.9370    0.0000 C   0  0
    9.3937    6.5037    0.0000 C   0  0
    7.9313    6.1699    0.0000 C   0  0
    7.2014    4.8603    0.0000 N   0  0
    0.0000    1.7286    0.0000 N   0  0
   -1.3515    1.0777    0.0000 C   0  0
   -1.6852   -0.3847    0.0000 C   0  0  2  0  0  0
   -3.0899   -0.9120    0.0000 C   0  0
   -3.0226   -2.4105    0.0000 C   0  0
   -1.5767   -2.8095    0.0000 C   0  0
   -0.7500   -1.5574    0.0000 N   0  0
    0.7500   -1.5574    0.0000 C   0  0
    1.4008   -2.9088    0.0000 O   0  0
  1  2  1  0
  2  3  1  0
  3  4  2  0
  4  5  1  0
  5  6  2  0
  6  7  1  0
  7  8  2  0
  8  3  1  0
  8  9  1  0
  9 10  1  0
 10 11  2  0
 10 12  1  0
 12 13  2  0
 13 14  1  0
 14 15  2  0
 15 16  1  0
 16 17  2  0
 17 18  1  0
 18 19  2  0
 19 14  1  0
 19 20  1  0
 20 12  1  0
  6 21  1  0
 21 22  2  0
 23 22  1  1
 23 24  1  0
 24 25  1  0
 25 26  1  0
 26 27  1  0
 27 23  1  0
 27 28  1  0
 28  5  1  0
 28 29  2  0
M  END
> <Smiles>
COc1cc2c(cc1OC(=O)c1cc3ccccc3[nH]1)N=C[C@@H]1CCCN1C2=O

> <ID>
CHEMBL382620

> <standard_value>
669

> <IC50_uM>
0.669

> <Activity>
Yes

> <pIC50>
6.174573882

> <BCI>
1

$$$$

  SciTegic03012415362D

 28 29  0  0  0  0            999 V2000
    3.8983   -0.7459    0.0000 C   0  0
    2.6003   -1.4977    0.0000 O   0  0
    1.2990   -0.7500    0.0000 C   0  0
    1.2990    0.7500    0.0000 C   0  0
    0.0000    1.5000    0.0000 C   0  0
    0.5104    2.9114    0.0000 C   0  0
   -0.4560    4.0597    0.0000 C   0  0
   -1.9338    3.7979    0.0000 C   0  0
   -2.9013    4.9442    0.0000 C   0  0
   -4.3778    4.6796    0.0000 C   0  0
   -5.3434    5.8285    0.0000 N   0  3
   -4.8323    7.2388    0.0000 O   0  0
   -6.8203    5.5664    0.0000 O   0  5
   -4.8868    3.2686    0.0000 C   0  0
   -6.3635    3.0007    0.0000 O   0  0
   -6.8706    1.5890    0.0000 C   0  0
   -3.9194    2.1222    0.0000 C   0  0
   -4.4258    0.7094    0.0000 N   0  3
   -3.4567   -0.4355    0.0000 O   0  0
   -5.9018    0.4422    0.0000 O   0  5
   -2.4429    2.3869    0.0000 C   0  0
   -1.2990    0.7500    0.0000 C   0  0
   -1.2990   -0.7500    0.0000 C   0  0
   -2.6003   -1.4978    0.0000 O   0  0
   -2.6044   -2.9977    0.0000 C   0  0
    0.0000   -1.5000    0.0000 C   0  0
    0.0031   -3.0008    0.0000 O   0  0
    1.3032   -3.7490    0.0000 C   0  0
  1  2  1  0
  2  3  1  0
  3  4  2  0
  4  5  1  0
  5  6  1  0
  6  7  2  0
  7  8  1  0
  8  9  2  0
  9 10  1  0
 10 11  1  0
 11 12  2  0
 11 13  1  0
 10 14  2  0
 14 15  1  0
 15 16  1  0
 14 17  1  0
 17 18  1  0
 18 19  2  0
 18 20  1  0
 17 21  2  0
 21  8  1  0
  5 22  2  0
 22 23  1  0
 23 24  1  0
 24 25  1  0
 23 26  2  0
 26  3  1  0
 26 27  1  0
 27 28  1  0
M  CHG  4  11   1  13  -1  18   1  20  -1
M  END
> <Smiles>
COc1cc(/C=C\c2cc([N+](=O)[O-])c(OC)c([N+](=O)[O-])c2)cc(OC)c1OC

> <ID>
CHEMBL402147

> <standard_value>
680

> <IC50_uM>
0.68

> <Activity>
Yes

> <pIC50>
6.167491087

> <BCI>
1

$$$$

  SciTegic03012415362D

 25 26  0  0  1  0            999 V2000
   11.6982   -0.7323    0.0000 C   0  0
   10.4003   -1.4841    0.0000 C   0  0
   10.4029   -2.9841    0.0000 C   0  0
    9.0990   -0.7364    0.0000 C   0  0
    7.8003   -1.4887    0.0000 C   0  0  2  0  0  0
    6.4990   -0.7409    0.0000 N   0  0
    5.2003   -1.4932    0.0000 C   0  0
    5.2029   -2.9932    0.0000 O   0  0
    3.8990   -0.7455    0.0000 C   0  0
    2.6003   -1.4977    0.0000 C   0  0
    1.2990   -0.7500    0.0000 N   0  0
    1.2990    0.7500    0.0000 C   0  0
    0.0000    1.5000    0.0000 C   0  0
   -1.2990    0.7500    0.0000 C   0  0
   -2.5981    1.5000    0.0000 C   0  0
   -3.8971    0.7500    0.0000 C   0  0
   -3.8971   -0.7500    0.0000 C   0  0
   -5.1961   -1.5000    0.0000 Br  0  0
   -2.5981   -1.5000    0.0000 C   0  0
   -1.2990   -0.7500    0.0000 C   0  0
    0.0000   -1.5000    0.0000 C   0  0
    0.0000   -3.0000    0.0000 O   0  0
    7.7998   -2.9895    0.0000 B   0  0
    6.5010   -3.7399    0.0000 O   0  0
    9.0989   -3.7395    0.0000 O   0  0
  1  2  1  0
  2  3  1  0
  2  4  1  0
  5  4  1  1
  5  6  1  0
  6  7  1  0
  7  8  2  0
  7  9  1  0
  9 10  1  0
 10 11  1  0
 11 12  1  0
 12 13  2  0
 13 14  1  0
 14 15  2  0
 15 16  1  0
 16 17  2  0
 17 18  1  0
 17 19  1  0
 19 20  2  0
 20 14  1  0
 20 21  1  0
 21 11  1  0
 21 22  2  0
  5 23  1  0
 23 24  1  0
 23 25  1  0
M  END
> <Smiles>
CC(C)C[C@H](NC(=O)CCn1ccc2ccc(Br)cc2c1=O)B(O)O

> <ID>
CHEMBL3287944

> <standard_value>
700

> <IC50_uM>
0.7

> <Activity>
Yes

> <pIC50>
6.15490196

> <BCI>
1

$$$$

  SciTegic03012415362D

 24 27  0  0  0  0            999 V2000
    2.5875   -5.9994    0.0000 C   0  0
    3.8888   -5.2533    0.0000 O   0  0
    3.8943   -3.7525    0.0000 C   0  0
    5.1945   -3.0045    0.0000 C   0  0
    5.1969   -1.5045    0.0000 C   0  0
    6.4963   -0.7535    0.0000 O   0  0
    6.4965    0.7465    0.0000 C   0  0
    3.8991   -0.7525    0.0000 C   0  0
    2.5987   -1.5004    0.0000 C   0  0
    1.2990   -0.7500    0.0000 C   0  0
    1.2990    0.7500    0.0000 C   0  0
    0.0000    1.5000    0.0000 C   0  0
    0.0000    3.0000    0.0000 O   0  0
   -1.2990    0.7500    0.0000 C   0  0
   -2.5981    1.5000    0.0000 C   0  0
   -3.8971    0.7500    0.0000 C   0  0
   -3.8971   -0.7500    0.0000 C   0  0
   -2.5981   -1.5000    0.0000 C   0  0
   -1.2990   -0.7500    0.0000 C   0  0
    0.0000   -1.5000    0.0000 N   0  0
   -5.3228   -1.2136    0.0000 O   0  0
   -6.2045    0.0000    0.0000 C   0  0
   -5.3229    1.2135    0.0000 O   0  0
    2.5965   -3.0004    0.0000 C   0  0
  1  2  1  0
  2  3  1  0
  3  4  2  0
  4  5  1  0
  5  6  1  0
  6  7  1  0
  5  8  2  0
  8  9  1  0
  9 10  1  0
 10 11  2  0
 11 12  1  0
 12 13  1  0
 12 14  2  0
 14 15  1  0
 15 16  2  0
 16 17  1  0
 17 18  2  0
 18 19  1  0
 19 14  1  0
 19 20  2  0
 20 10  1  0
 17 21  1  0
 21 22  1  0
 22 23  1  0
 23 16  1  0
  9 24  2  0
 24  3  1  0
M  END
> <Smiles>
COc1cc(OC)cc(-c2cc(O)c3cc4c(cc3n2)OCO4)c1

> <ID>
CHEMBL14782

> <standard_value>
707.95

> <IC50_uM>
0.70795

> <Activity>
Yes

> <pIC50>
6.149997414

> <BCI>
1

$$$$

  SciTegic03012415362D

 23 25  0  0  0  0            999 V2000
    3.6493   -9.7169    0.0000 C   0  0
    4.4967   -8.4792    0.0000 O   0  0
    3.8490   -7.1253    0.0000 C   0  0
    4.6946   -5.8864    0.0000 C   0  0
    4.0445   -4.5346    0.0000 C   0  0
    2.5536   -4.4230    0.0000 C   0  0
    1.8032   -3.1233    0.0000 C   0  0
    0.3114   -2.9665    0.0000 N   0  0
    0.0000   -1.5000    0.0000 C   0  0
   -1.2990   -0.7500    0.0000 C   0  0
   -1.2990    0.7500    0.0000 C   0  0
    0.0000    1.5000    0.0000 C   0  0
    1.2990    0.7500    0.0000 C   0  0
    1.2990   -0.7500    0.0000 C   0  0
    2.4133   -1.7530    0.0000 C   0  0
    3.8794   -1.4442    0.0000 C   0  0
    4.3468   -0.0180    0.0000 C   0  0
    5.8154    0.2913    0.0000 C   0  0
    7.2832    0.6004    0.0000 N   0  0
    3.3450    1.0995    0.0000 C   0  0
    2.3438    2.2164    0.0000 N   0  0
    1.7031   -5.6606    0.0000 C   0  0
    2.3532   -7.0124    0.0000 C   0  0
  1  2  1  0
  2  3  1  0
  3  4  2  0
  4  5  1  0
  5  6  2  0
  6  7  1  0
  7  8  1  0
  8  9  1  0
  9 10  2  0
 10 11  1  0
 11 12  2  0
 12 13  1  0
 13 14  2  0
 14  9  1  0
 14 15  1  0
 15  7  2  0
 15 16  1  0
 16 17  2  0
 17 18  1  0
 18 19  3  0
 17 20  1  0
 20 21  3  0
  6 22  1  0
 22 23  2  0
 23  3  1  0
M  END
> <Smiles>
COc1ccc(-c2[nH]c3ccccc3c2C=C(C#N)C#N)cc1

> <ID>
CHEMBL392660

> <standard_value>
709

> <IC50_uM>
0.709

> <Activity>
Yes

> <pIC50>
6.149353765

> <BCI>
1

$$$$

  SciTegic03012415362D

 26 28  0  0  0  0            999 V2000
    5.1964   -5.9923    0.0000 C   0  0
    6.4964   -5.2441    0.0000 O   0  0
    6.4995   -3.7432    0.0000 C   0  0
    7.7985   -2.9932    0.0000 C   0  0
    7.7985   -1.4932    0.0000 C   0  0
    9.0967   -0.7401    0.0000 O   0  0
    9.0945    0.7599    0.0000 C   0  0
    6.4994   -0.7432    0.0000 C   0  0
    5.2003   -1.4932    0.0000 C   0  0
    3.8990   -0.7455    0.0000 N   0  0
    3.8964    0.7545    0.0000 C   0  0
    2.6003   -1.4977    0.0000 C   0  0
    1.2990   -0.7500    0.0000 C   0  0
    1.2990    0.7500    0.0000 C   0  0
    0.0000    1.5000    0.0000 N   0  0
   -1.2990    0.7500    0.0000 C   0  0
   -2.5981    1.5000    0.0000 N   0  0
   -3.8971    0.7500    0.0000 C   0  0
   -5.1962    1.5000    0.0000 N   0  0
   -3.8971   -0.7500    0.0000 N   0  0
   -2.5981   -1.5000    0.0000 C   0  0
   -2.5981   -3.0000    0.0000 N   0  0
   -1.2990   -0.7500    0.0000 C   0  0
    0.0000   -1.5000    0.0000 C   0  0
    0.0000   -3.0000    0.0000 C   0  0
    5.2004   -2.9933    0.0000 C   0  0
  1  2  1  0
  2  3  1  0
  3  4  2  0
  4  5  1  0
  5  6  1  0
  6  7  1  0
  5  8  2  0
  8  9  1  0
  9 10  1  0
 10 11  1  0
 10 12  1  0
 12 13  1  0
 13 14  2  0
 14 15  1  0
 15 16  2  0
 16 17  1  0
 17 18  2  0
 18 19  1  0
 18 20  1  0
 20 21  2  0
 21 22  1  0
 21 23  1  0
 23 16  1  0
 23 24  2  0
 24 13  1  0
 24 25  1  0
  9 26  2  0
 26  3  1  0
M  END
> <Smiles>
COc1cc(OC)cc(N(C)Cc2cnc3nc(N)nc(N)c3c2C)c1

> <ID>
CHEMBL22623

> <standard_value>
717

> <IC50_uM>
0.717

> <Activity>
Yes

> <pIC50>
6.144480844

> <BCI>
1

$$$$

  SciTegic03012415362D

 50 55  0  0  0  0            999 V2000
    2.5981   -1.5000    0.0000 O   0  0
    1.2990   -0.7500    0.0000 C   0  0
    1.2990    0.7500    0.0000 C   0  0
    2.5981    1.5000    0.0000 C   0  0
    2.5981    3.0000    0.0000 C   0  0
    1.2990    3.7500    0.0000 C   0  0
    0.0000    3.0000    0.0000 C   0  0
   -1.2991    3.7500    0.0000 C   0  0
   -2.5981    3.0000    0.0000 C   0  0
   -2.5981    1.5000    0.0000 C   0  0
   -1.2990    0.7500    0.0000 C   0  0
    0.0000    1.5000    0.0000 C   0  0
   -1.2990   -0.7500    0.0000 C   0  0
   -2.5981   -1.5000    0.0000 O   0  0
    0.0000   -1.5000    0.0000 N   0  0
    0.0031   -3.0008    0.0000 C   0  0
    1.3039   -3.7494    0.0000 C   0  0
    1.3070   -5.2502    0.0000 C   0  0
    2.6078   -5.9988    0.0000 N   0  0
    2.6109   -7.4996    0.0000 C   0  0
    3.9117   -8.2481    0.0000 C   0  0
    3.9148   -9.7490    0.0000 C   0  0
    5.2157  -10.4975    0.0000 N   0  0
    5.2188  -11.9983    0.0000 C   0  0
    6.5196  -12.7469    0.0000 C   0  0
    6.5227  -14.2477    0.0000 C   0  0
    7.8235  -14.9963    0.0000 C   0  0
    7.8266  -16.4971    0.0000 N   0  0
    9.1274  -17.2457    0.0000 C   0  0
    9.1305  -18.7465    0.0000 C   0  0
   10.4313  -19.4950    0.0000 C   0  0
   10.4344  -20.9959    0.0000 N   0  0
   11.7352  -21.7444    0.0000 C   0  0
   11.7383  -23.2452    0.0000 C   0  0
   13.0391  -23.9938    0.0000 C   0  0
   13.0422  -25.4946    0.0000 N   0  0
   14.3413  -26.2447    0.0000 C   0  0
   15.6403  -25.4947    0.0000 O   0  0
   14.3413  -27.7447    0.0000 C   0  0
   15.6404  -28.4947    0.0000 C   0  0
   15.6404  -29.9947    0.0000 C   0  0
   14.3414  -30.7447    0.0000 C   0  0
   13.0423  -29.9947    0.0000 C   0  0
   11.7433  -30.7447    0.0000 C   0  0
   10.4443  -29.9948    0.0000 C   0  0
   10.4442  -28.4948    0.0000 C   0  0
   11.7432  -27.7447    0.0000 C   0  0
   13.0423  -28.4947    0.0000 C   0  0
   11.7432  -26.2447    0.0000 C   0  0
   10.4441  -25.4948    0.0000 O   0  0
  1  2  2  0
  2  3  1  0
  3  4  2  0
  4  5  1  0
  5  6  2  0
  6  7  1  0
  7  8  2  0
  8  9  1  0
  9 10  2  0
 10 11  1  0
 11 12  2  0
 12  3  1  0
 12  7  1  0
 11 13  1  0
 13 14  2  0
 13 15  1  0
 15  2  1  0
 15 16  1  0
 16 17  1  0
 17 18  1  0
 18 19  1  0
 19 20  1  0
 20 21  1  0
 21 22  1  0
 22 23  1  0
 23 24  1  0
 24 25  1  0
 25 26  1  0
 26 27  1  0
 27 28  1  0
 28 29  1  0
 29 30  1  0
 30 31  1  0
 31 32  1  0
 32 33  1  0
 33 34  1  0
 34 35  1  0
 35 36  1  0
 36 37  1  0
 37 38  2  0
 37 39  1  0
 39 40  2  0
 40 41  1  0
 41 42  2  0
 42 43  1  0
 43 44  2  0
 44 45  1  0
 45 46  2  0
 46 47  1  0
 47 48  2  0
 48 39  1  0
 48 43  1  0
 47 49  1  0
 49 36  1  0
 49 50  2  0
M  END
> <Smiles>
Br.Br.Br.Br.O=C1c2cccc3cccc(c23)C(=O)N1CCCNCCCNCCCCNCCCNCCCN1C(=O)c2cccc3cccc(c23)C1=O

> <ID>
CHEMBL541534

> <standard_value>
722

> <IC50_uM>
0.722

> <Activity>
Yes

> <pIC50>
6.141462802

> <BCI>
1

> <RemovedSalts>
HBr
HBr
HBr
HBr

$$$$

  SciTegic03012415362D

 22 25  0  0  0  0            999 V2000
    3.8926   -3.7566    0.0000 C   0  0
    2.5951   -3.0039    0.0000 S   0  0
    2.5973   -1.5031    0.0000 C   0  0
    1.2990   -0.7500    0.0000 N   0  3
    1.2990    0.7500    0.0000 C   0  0
    0.0000    1.5000    0.0000 C   0  0
   -1.2990    0.7500    0.0000 C   0  0
   -2.5981    1.5000    0.0000 C   0  0
   -2.5981    3.0000    0.0000 C   0  0
   -3.8971    0.7500    0.0000 C   0  0
   -5.3229    1.2135    0.0000 N   0  0
   -6.2045    0.0000    0.0000 C   0  0
   -7.6953   -0.1561    0.0000 C   0  0
   -8.3054   -1.5264    0.0000 C   0  0
   -7.4237   -2.7399    0.0000 C   0  0
   -5.9319   -2.5831    0.0000 C   0  0
   -5.3228   -1.2136    0.0000 C   0  0
   -3.8971   -0.7500    0.0000 C   0  0
   -2.5981   -1.5000    0.0000 C   0  0
   -2.5981   -3.0000    0.0000 C   0  0
   -1.2990   -0.7500    0.0000 C   0  0
    0.0000   -1.5000    0.0000 C   0  0
  1  2  1  0
  2  3  1  0
  3  4  1  0
  4  5  2  0
  5  6  1  0
  6  7  2  0
  7  8  1  0
  8  9  1  0
  8 10  2  0
 10 11  1  0
 11 12  1  0
 12 13  2  0
 13 14  1  0
 14 15  2  0
 15 16  1  0
 16 17  2  0
 17 12  1  0
 17 18  1  0
 18 10  1  0
 18 19  2  0
 19 20  1  0
 19 21  1  0
 21  7  1  0
 21 22  2  0
 22  4  1  0
M  CHG  1   4   1
M  END
> <Smiles>
CSC[n+]1ccc2c(C)c3[nH]c4ccccc4c3c(C)c2c1.[Cl-]

> <ID>
CHEMBL69189

> <standard_value>
726

> <IC50_uM>
0.726

> <Activity>
Yes

> <pIC50>
6.139063379

> <BCI>
1

> <RemovedSalts>
Cl-

$$$$

  SciTegic03012415362D

 29 33  0  0  0  0            999 V2000
    4.0497   -4.4250    0.0000 O   0  0
    2.5497   -4.4224    0.0000 C   0  0
    1.7974   -5.7210    0.0000 C   0  0
    2.5451   -7.0223    0.0000 C   0  0
    1.7928   -8.3210    0.0000 C   0  0
    0.3115   -8.4537    0.0000 N   0  0
   -0.0055   -9.9198    0.0000 N   0  0
    1.2909  -10.6743    0.0000 C   0  0
    1.8948  -12.0452    0.0000 S   0  0
    3.3871  -11.8936    0.0000 C   0  0
    4.3874  -13.0124    0.0000 C   0  0
    5.8288  -12.5910    0.0000 C   0  0
    6.9099  -13.6308    0.0000 C   0  0
    6.5499  -15.0870    0.0000 C   0  0
    7.6310  -16.1268    0.0000 Cl  0  0
    5.1089  -15.5034    0.0000 C   0  0
    4.0278  -14.4635    0.0000 C   0  0
    2.5866  -14.8795    0.0000 Cl  0  0
    3.7041  -10.4275    0.0000 N   0  0
    2.4091   -9.6745    0.0000 N   0  0
    1.8032   -3.1233    0.0000 C   0  0
    2.4133   -1.7530    0.0000 N   0  0
    1.2990   -0.7500    0.0000 C   0  0
    1.2990    0.7500    0.0000 C   0  0
    0.0000    1.5000    0.0000 C   0  0
   -1.2990    0.7500    0.0000 C   0  0
   -1.2990   -0.7500    0.0000 C   0  0
    0.0000   -1.5000    0.0000 C   0  0
    0.3114   -2.9665    0.0000 N   0  0
  1  2  2  0
  2  3  1  0
  3  4  1  0
  4  5  1  0
  5  6  2  0
  6  7  1  0
  7  8  2  0
  8  9  1  0
  9 10  1  0
 10 11  1  0
 11 12  2  0
 12 13  1  0
 13 14  2  0
 14 15  1  0
 14 16  1  0
 16 17  2  0
 17 11  1  0
 17 18  1  0
 10 19  2  0
 19 20  1  0
 20  5  1  0
 20  8  1  0
  2 21  1  0
 21 22  2  0
 22 23  1  0
 23 24  2  0
 24 25  1  0
 25 26  2  0
 26 27  1  0
 27 28  2  0
 28 23  1  0
 28 29  1  0
 29 21  1  0
M  END
> <Smiles>
O=C(CCc1nnc2sc(-c3ccc(Cl)cc3Cl)nn12)c1nc2ccccc2[nH]1

> <ID>
CHEMBL2335258

> <standard_value>
740

> <IC50_uM>
0.74

> <Activity>
Yes

> <pIC50>
6.13076828

> <BCI>
1

$$$$

  SciTegic03012415362D

 23 26  0  0  0  0            999 V2000
    2.5875   -5.9994    0.0000 C   0  0
    3.8888   -5.2533    0.0000 N   0  0
    5.1854   -6.0076    0.0000 C   0  0
    3.8943   -3.7525    0.0000 C   0  0
    5.1945   -3.0045    0.0000 C   0  0
    5.1969   -1.5045    0.0000 C   0  0
    3.8991   -0.7525    0.0000 C   0  0
    2.5987   -1.5004    0.0000 C   0  0
    1.2990   -0.7500    0.0000 C   0  0
    1.2990    0.7500    0.0000 C   0  0
    0.0000    1.5000    0.0000 C   0  0
    0.0000    3.0000    0.0000 O   0  0
   -1.2990    0.7500    0.0000 C   0  0
   -2.5981    1.5000    0.0000 C   0  0
   -3.8971    0.7500    0.0000 C   0  0
   -3.8971   -0.7500    0.0000 C   0  0
   -2.5981   -1.5000    0.0000 C   0  0
   -1.2990   -0.7500    0.0000 C   0  0
    0.0000   -1.5000    0.0000 N   0  0
   -5.3228   -1.2136    0.0000 O   0  0
   -6.2045    0.0000    0.0000 C   0  0
   -5.3229    1.2135    0.0000 O   0  0
    2.5965   -3.0004    0.0000 C   0  0
  1  2  1  0
  2  3  1  0
  2  4  1  0
  4  5  2  0
  5  6  1  0
  6  7  2  0
  7  8  1  0
  8  9  1  0
  9 10  2  0
 10 11  1  0
 11 12  1  0
 11 13  2  0
 13 14  1  0
 14 15  2  0
 15 16  1  0
 16 17  2  0
 17 18  1  0
 18 13  1  0
 18 19  2  0
 19  9  1  0
 16 20  1  0
 20 21  1  0
 21 22  1  0
 22 15  1  0
  8 23  2  0
 23  4  1  0
M  END
> <Smiles>
CN(C)c1cccc(-c2cc(O)c3cc4c(cc3n2)OCO4)c1

> <ID>
CHEMBL275872

> <standard_value>
741.31

> <IC50_uM>
0.74131

> <Activity>
Yes

> <pIC50>
6.130000141

> <BCI>
1

$$$$

  SciTegic03012415362D

 22 24  0  0  1  0            999 V2000
   -4.6575   -7.1727    0.0000 C   0  0
   -3.2441   -6.6705    0.0000 C   0  0
   -1.8348   -6.1949    0.0000 C   0  0  1  0  0  0
   -0.6797   -7.1519    0.0000 O   0  0
   -2.8675   -5.1069    0.0000 C   0  0  1  0  0  0
   -4.3525   -5.3058    0.0000 C   0  0
   -4.9243   -6.6925    0.0000 O   0  0
   -2.1519   -3.7886    0.0000 O   0  0
   -0.6928   -4.0817    0.0000 C   0  0  1  0  0  0
    0.3114   -2.9665    0.0000 N   0  0
    1.8032   -3.1233    0.0000 C   0  0
    2.4133   -1.7530    0.0000 C   0  0
    3.8805   -1.4410    0.0000 F   0  0
    1.2990   -0.7500    0.0000 C   0  0
    1.2990    0.7500    0.0000 C   0  0
    2.5981    1.5000    0.0000 N   0  0
    0.0000    1.5000    0.0000 N   0  0
   -1.2990    0.7500    0.0000 C   0  0
   -1.2990   -0.7500    0.0000 N   0  0
    0.0000   -1.5000    0.0000 C   0  0
   -0.4810   -5.5489    0.0000 C   0  0  2  0  0  0
    0.8417   -6.2564    0.0000 O   0  0
  1  2  3  0
  2  3  1  0
  3  4  1  6
  3  5  1  0
  5  6  1  1
  6  7  1  0
  5  8  1  0
  8  9  1  0
  9 10  1  1
 10 11  1  0
 11 12  2  0
 12 13  1  0
 12 14  1  0
 14 15  2  0
 15 16  1  0
 15 17  1  0
 17 18  2  0
 18 19  1  0
 19 20  2  0
 20 14  1  0
 20 10  1  0
  9 21  1  0
 21  3  1  0
 21 22  1  6
M  END
> <Smiles>
C#C[C@@]1(O)[C@@H](CO)O[C@@H](n2cc(F)c3c(N)ncnc32)[C@@H]1O

> <ID>
CHEMBL4277322

> <standard_value>
752

> <IC50_uM>
0.752

> <Activity>
Yes

> <pIC50>
6.123782159

> <BCI>
1

$$$$

  SciTegic03012415362D

 21 24  0  0  0  0            999 V2000
    3.8919   -5.2525    0.0000 N   0  0
    3.8943   -3.7525    0.0000 C   0  0
    5.1945   -3.0045    0.0000 C   0  0
    5.1969   -1.5045    0.0000 C   0  0
    3.8991   -0.7525    0.0000 C   0  0
    2.5987   -1.5004    0.0000 C   0  0
    1.2990   -0.7500    0.0000 C   0  0
    1.2990    0.7500    0.0000 C   0  0
    0.0000    1.5000    0.0000 C   0  0
    0.0000    3.0000    0.0000 O   0  0
   -1.2990    0.7500    0.0000 C   0  0
   -2.5981    1.5000    0.0000 C   0  0
   -3.8971    0.7500    0.0000 C   0  0
   -3.8971   -0.7500    0.0000 C   0  0
   -2.5981   -1.5000    0.0000 C   0  0
   -1.2990   -0.7500    0.0000 C   0  0
    0.0000   -1.5000    0.0000 N   0  0
   -5.3228   -1.2136    0.0000 O   0  0
   -6.2045    0.0000    0.0000 C   0  0
   -5.3229    1.2135    0.0000 O   0  0
    2.5965   -3.0004    0.0000 C   0  0
  1  2  1  0
  2  3  2  0
  3  4  1  0
  4  5  2  0
  5  6  1  0
  6  7  1  0
  7  8  2  0
  8  9  1  0
  9 10  1  0
  9 11  2  0
 11 12  1  0
 12 13  2  0
 13 14  1  0
 14 15  2  0
 15 16  1  0
 16 11  1  0
 16 17  2  0
 17  7  1  0
 14 18  1  0
 18 19  1  0
 19 20  1  0
 20 13  1  0
  6 21  2  0
 21  2  1  0
M  END
> <Smiles>
Nc1cccc(-c2cc(O)c3cc4c(cc3n2)OCO4)c1

> <ID>
CHEMBL299305

> <standard_value>
758.58

> <IC50_uM>
0.75858

> <Activity>
Yes

> <pIC50>
6.119998612

> <BCI>
1

$$$$

  SciTegic03012415362D

 49 54  0  0  1  0            999 V2000
    3.8964    0.7545    0.0000 C   0  0
    3.8990   -0.7455    0.0000 C   0  0
    5.1996   -1.4928    0.0000 O   0  0
    2.6003   -1.4977    0.0000 O   0  0
    1.2990   -0.7500    0.0000 C   0  0  1  0  0  0
    1.2990    0.7500    0.0000 C   0  0
    0.0000    1.5000    0.0000 C   0  0  1  0  0  0
   -1.2990    0.7500    0.0000 C   0  0  1  0  0  0
   -2.5981    1.5000    0.0000 C   0  0  2  0  0  0
   -3.8963    0.7469    0.0000 O   0  0
   -3.8942   -0.7539    0.0000 C   0  0
   -3.0273   -1.2524    0.0000 C   0  0
   -5.1916   -1.5066    0.0000 O   0  0
   -2.5981    3.0000    0.0000 C   0  0
   -1.2991    3.7500    0.0000 C   0  0  2  0  0  0
   -1.2991    5.2500    0.0000 C   0  0
    0.0000    6.0000    0.0000 C   0  0
    1.2990    5.2500    0.0000 C   0  0
    1.2990    3.7500    0.0000 C   0  0
    0.0000    3.0000    0.0000 C   0  0  2  0  0  0
    1.2990    2.2500    0.0000 C   0  0
   -0.7043    7.3783    0.0000 O   0  0
    0.0457    8.6773    0.0000 O   0  0
    1.5457    8.6773    0.0000 C   0  0
    1.6250   10.2231    0.0000 C   0  0
    2.9240   10.9731    0.0000 C   0  0
    4.2231   10.2231    0.0000 C   0  0
    4.2230    8.7231    0.0000 C   0  0
    2.9240    7.9731    0.0000 C   0  0
    2.2957    7.3783    0.0000 O   0  0
    1.5457    6.0793    0.0000 O   0  0
   -1.2990   -0.7500    0.0000 C   0  0  2  0  0  0
   -2.3947   -1.7666    0.0000 C   0  0
   -1.7758   -3.1330    0.0000 C   0  0
   -0.2851   -2.9666    0.0000 C   0  0  2  0  0  0
    0.7300   -4.0685    0.0000 C   0  0  2  0  0  0
    0.2824   -5.5001    0.0000 C   0  0
    2.1946   -3.7406    0.0000 C   0  0
    3.2115   -4.8444    0.0000 C   0  0
    4.6761   -4.5166    0.0000 C   0  0
    5.1238   -3.0849    0.0000 O   0  0
    5.6930   -5.6204    0.0000 N   0  0
    7.1576   -5.2925    0.0000 C   0  0
    8.1745   -6.3963    0.0000 C   0  0
    9.6391   -6.0685    0.0000 N   0  0
   10.6554   -7.1716    0.0000 C   0  0
   10.0867   -4.6368    0.0000 C   0  0
    0.0000   -1.5000    0.0000 C   0  0  1  0  0  0
    1.2212   -2.3710    0.0000 C   0  0
  1  2  1  0
  2  3  2  0
  2  4  1  0
  5  4  1  6
  5  6  1  0
  7  6  1  1
  8  7  1  6
  8  9  1  0
  9 10  1  6
 10 11  1  0
 11 12  1  0
 11 13  2  0
  9 14  1  0
 15 14  1  6
 15 16  1  0
 16 17  1  0
 17 18  1  0
 18 19  1  0
 19 20  1  0
 20 15  1  0
 20  7  1  0
 20 21  1  1
 17 22  1  0
 22 23  1  0
 23 24  1  0
 24 25  1  0
 25 26  1  0
 26 27  1  0
 27 28  1  0
 28 29  1  0
 29 24  1  0
 24 30  1  0
 30 31  1  0
 31 17  1  0
  8 32  1  0
 32 33  1  1
 33 34  1  0
 35 34  1  1
 35 36  1  0
 36 37  1  1
 36 38  1  0
 38 39  1  0
 39 40  1  0
 40 41  2  0
 40 42  1  0
 42 43  1  0
 43 44  1  0
 44 45  1  0
 45 46  1  0
 45 47  1  0
 35 48  1  0
 48  5  1  0
 48 32  1  0
 48 49  1  1
M  END
> <Smiles>
CC(=O)O[C@H]1C[C@H]2[C@@H]([C@H](OC(C)=O)C[C@@H]3CC4(CC[C@@]32C)OOC2(CCCCC2)OO4)[C@@H]2CC[C@H]([C@H](C)CCC(=O)NCCN(C)C)[C@@]12C

> <ID>
CHEMBL388254

> <standard_value>
785

> <IC50_uM>
0.785

> <Activity>
Yes

> <pIC50>
6.105130343

> <BCI>
1

$$$$

  SciTegic03012415362D

 32 34  0  0  0  0            999 V2000
    5.1996   -1.4928    0.0000 C   0  0
    3.8990   -0.7455    0.0000 C   0  0
    2.6003   -1.4977    0.0000 O   0  0
    1.2990   -0.7500    0.0000 C   0  0
    1.2990    0.7500    0.0000 C   0  0
    0.0000    1.5000    0.0000 C   0  0
   -1.2990    0.7500    0.0000 C   0  0
   -1.2990   -0.7500    0.0000 C   0  0
   -2.6003   -1.4978    0.0000 C   0  0
   -3.8990   -0.7455    0.0000 N   0  0
   -5.2003   -1.4932    0.0000 N   0  0
   -6.4990   -0.7410    0.0000 C   0  0
   -6.4964    0.7590    0.0000 O   0  0
   -7.8003   -1.4887    0.0000 C   0  0
   -7.8004   -2.9888    0.0000 C   0  0
   -9.0994   -3.7388    0.0000 C   0  0
  -10.3985   -2.9887    0.0000 C   0  0
  -10.3984   -1.4887    0.0000 C   0  0
   -9.0994   -0.7388    0.0000 C   0  0
   -9.1025    0.7621    0.0000 N   0  0
  -10.4033    1.5106    0.0000 C   0  0
  -10.4086    3.0106    0.0000 C   0  0
  -11.7102    3.7561    0.0000 C   0  0
  -13.0067    3.0016    0.0000 N   0  0
  -13.0015    1.5016    0.0000 C   0  0
  -14.2986    0.7467    0.0000 C   0  0
  -15.6007    1.4914    0.0000 F   0  0
  -14.2929   -0.7533    0.0000 F   0  0
  -15.5947   -0.0084    0.0000 F   0  0
  -11.6998    0.7561    0.0000 C   0  0
    0.0000   -1.5000    0.0000 C   0  0
    0.0000   -3.0000    0.0000 O   0  0
  1  2  1  0
  2  3  1  0
  3  4  1  0
  4  5  2  0
  5  6  1  0
  6  7  2  0
  7  8  1  0
  8  9  1  0
  9 10  2  0
 10 11  1  0
 11 12  1  0
 12 13  2  0
 12 14  1  0
 14 15  2  0
 15 16  1  0
 16 17  2  0
 17 18  1  0
 18 19  2  0
 19 14  1  0
 19 20  1  0
 20 21  1  0
 21 22  2  0
 22 23  1  0
 23 24  2  0
 24 25  1  0
 25 26  1  0
 26 27  1  0
 26 28  1  0
 26 29  1  0
 25 30  2  0
 30 21  1  0
  8 31  2  0
 31  4  1  0
 31 32  1  0
M  END
> <Smiles>
CCOc1cccc(/C=N/NC(=O)c2ccccc2Nc2ccnc(C(F)(F)F)c2)c1O

> <ID>
CHEMBL2440594

> <standard_value>
794.33

> <IC50_uM>
0.79433

> <Activity>
Yes

> <pIC50>
6.099999035

> <BCI>
1

$$$$

  SciTegic03012415362D

 26 28  0  0  0  0            999 V2000
   10.3868   -7.5069    0.0000 C   0  0
    9.0888   -8.2588    0.0000 O   0  0
    7.7875   -7.5110    0.0000 C   0  0
    6.4885   -8.2610    0.0000 C   0  0
    5.1895   -7.5109    0.0000 C   0  0
    5.1894   -6.0109    0.0000 C   0  0
    3.8912   -5.2578    0.0000 C   0  0
    3.8933   -3.7570    0.0000 C   0  0
    5.1937   -3.0093    0.0000 Cl  0  0
    2.5951   -3.0039    0.0000 C   0  0
    1.2948   -3.7516    0.0000 O   0  0
    2.5973   -1.5031    0.0000 N   0  0
    1.2990   -0.7500    0.0000 N   0  0
    1.2990    0.7500    0.0000 C   0  0
    2.5981    1.5000    0.0000 C   0  0
    0.0000    1.5000    0.0000 N   0  0
   -1.2990    0.7500    0.0000 C   0  0
   -2.5981    1.5000    0.0000 C   0  0
   -3.8971    0.7500    0.0000 C   0  0
   -3.8971   -0.7500    0.0000 C   0  0
   -2.5981   -1.5000    0.0000 C   0  0
   -1.2990   -0.7500    0.0000 C   0  0
    0.0000   -1.5000    0.0000 C   0  0
    0.0000   -3.0000    0.0000 O   0  0
    6.4885   -5.2610    0.0000 C   0  0
    7.7876   -6.0110    0.0000 C   0  0
  1  2  1  0
  2  3  1  0
  3  4  2  0
  4  5  1  0
  5  6  2  0
  6  7  1  0
  7  8  2  0
  8  9  1  0
  8 10  1  0
 10 11  2  0
 10 12  1  0
 12 13  1  0
 13 14  1  0
 14 15  1  0
 14 16  2  0
 16 17  1  0
 17 18  2  0
 18 19  1  0
 19 20  2  0
 20 21  1  0
 21 22  2  0
 22 17  1  0
 22 23  1  0
 23 13  1  0
 23 24  2  0
  6 25  1  0
 25 26  2  0
 26  3  1  0
M  END
> <Smiles>
COc1ccc(/C=C(\Cl)C(=O)Nn2c(C)nc3ccccc3c2=O)cc1

> <ID>
CHEMBL2297606

> <standard_value>
800

> <IC50_uM>
0.8

> <Activity>
Yes

> <pIC50>
6.096910013

> <BCI>
1

$$$$

  SciTegic03012415362D

 19 22  0  0  0  0            999 V2000
    2.5981   -1.5000    0.0000 C   0  0
    1.2990   -0.7500    0.0000 C   0  0
    1.2990    0.7500    0.0000 C   0  0
    2.5981    1.5000    0.0000 C   0  0
    2.5981    3.0000    0.0000 C   0  0
    1.2990    3.7500    0.0000 N   0  0
    0.0000    3.0000    0.0000 C   0  0
    0.0000    1.5000    0.0000 C   0  0
   -1.2990    0.7500    0.0000 C   0  0
   -2.5981    1.5000    0.0000 C   0  0
   -1.2990   -0.7500    0.0000 C   0  0
    0.0000   -1.5000    0.0000 C   0  0
   -0.3114   -2.9665    0.0000 N   0  0
   -1.8032   -3.1233    0.0000 C   0  0
   -2.6837   -4.3363    0.0000 C   0  0
   -4.1755   -4.1795    0.0000 C   0  0
   -4.7856   -2.8092    0.0000 C   0  0
   -3.9040   -1.5957    0.0000 C   0  0
   -2.4133   -1.7530    0.0000 C   0  0
  1  2  1  0
  2  3  2  0
  3  4  1  0
  4  5  2  0
  5  6  1  0
  6  7  2  0
  7  8  1  0
  8  3  1  0
  8  9  2  0
  9 10  1  0
  9 11  1  0
 11 12  2  0
 12  2  1  0
 12 13  1  0
 13 14  1  0
 14 15  2  0
 15 16  1  0
 16 17  2  0
 17 18  1  0
 18 19  2  0
 19 14  1  0
 19 11  1  0
M  END
> <Smiles>
Cc1c2ccncc2c(C)c2c1[nH]c1ccccc12

> <ID>
CHEMBL123

> <standard_value>
816

> <IC50_uM>
0.816

> <Activity>
Yes

> <pIC50>
6.088309841

> <BCI>
1

$$$$

  SciTegic03012415362D

 24 27  0  0  0  0            999 V2000
    3.8926   -3.7566    0.0000 C   0  0
    2.5951   -3.0039    0.0000 O   0  0
    2.5973   -1.5031    0.0000 C   0  0
    1.2990   -0.7500    0.0000 N   0  3
    1.2990    0.7500    0.0000 C   0  0
    0.0000    1.5000    0.0000 C   0  0
   -1.2990    0.7500    0.0000 C   0  0
   -2.5981    1.5000    0.0000 C   0  0
   -2.5981    3.0000    0.0000 C   0  0
   -3.8971    0.7500    0.0000 C   0  0
   -5.3229    1.2135    0.0000 N   0  0
   -6.2045    0.0000    0.0000 C   0  0
   -7.6953   -0.1561    0.0000 C   0  0
   -8.3054   -1.5264    0.0000 C   0  0
   -7.4237   -2.7399    0.0000 C   0  0
   -8.0313   -4.1123    0.0000 O   0  0
   -7.1479   -5.3245    0.0000 C   0  0
   -5.9319   -2.5831    0.0000 C   0  0
   -5.3228   -1.2136    0.0000 C   0  0
   -3.8971   -0.7500    0.0000 C   0  0
   -2.5981   -1.5000    0.0000 C   0  0
   -2.5981   -3.0000    0.0000 C   0  0
   -1.2990   -0.7500    0.0000 C   0  0
    0.0000   -1.5000    0.0000 C   0  0
  1  2  1  0
  2  3  1  0
  3  4  1  0
  4  5  2  0
  5  6  1  0
  6  7  2  0
  7  8  1  0
  8  9  1  0
  8 10  2  0
 10 11  1  0
 11 12  1  0
 12 13  2  0
 13 14  1  0
 14 15  2  0
 15 16  1  0
 16 17  1  0
 15 18  1  0
 18 19  2  0
 19 12  1  0
 19 20  1  0
 20 10  1  0
 20 21  2  0
 21 22  1  0
 21 23  1  0
 23  7  1  0
 23 24  2  0
 24  4  1  0
M  CHG  1   4   1
M  END
> <Smiles>
COC[n+]1ccc2c(C)c3[nH]c4ccc(OC)cc4c3c(C)c2c1.[Cl-]

> <ID>
CHEMBL68443

> <standard_value>
818

> <IC50_uM>
0.818

> <Activity>
Yes

> <pIC50>
6.087246696

> <BCI>
1

> <RemovedSalts>
Cl-

$$$$

  SciTegic03012415362D

 35 36  0  0  1  0            999 V2000
    8.3328   -0.0023    0.0000 C   0  0
    6.8600   -0.2868    0.0000 C   0  0
    6.3704   -1.7047    0.0000 C   0  0
    5.8760    0.8464    0.0000 C   0  0
    4.4000    0.5600    0.0000 C   0  0  2  0  0  0
    4.2200   -1.1700    0.0000 N   0  0
    2.7300   -2.3100    0.0000 C   0  0
    3.3354   -3.6824    0.0000 O   0  0
    1.0600   -2.6100    0.0000 C   0  0  1  0  0  0
    0.5100   -1.7100    0.0000 C   0  0
    1.1200   -0.8600    0.0000 S   0  0
    1.1200    0.1700    0.0000 S   0  0
    0.1700    0.8900    0.0000 C   0  0
   -0.7300    0.2000    0.0000 C   0  0
   -2.2400    0.4400    0.0000 C   0  0
   -2.2400    1.3600    0.0000 C   0  0
   -3.5000    1.7400    0.0000 C   0  0  2  0  0  0
   -4.3000    0.3600    0.0000 C   0  0
   -3.0600   -0.8000    0.0000 C   0  0
   -1.5902   -0.5006    0.0000 O   0  0
   -3.6400   -2.1100    0.0000 N   0  0
   -2.7700   -3.5200    0.0000 C   0  0  2  0  0  0
   -3.7604   -4.6549    0.0000 C   0  0
   -5.2325   -4.3670    0.0000 C   0  0
   -3.2741   -6.0739    0.0000 C   0  0
   -1.3000   -4.2000    0.0000 C   0  0
   -1.5134   -5.6847    0.0000 O   0  0
    0.3800   -3.9500    0.0000 N   0  0
   -3.5000    2.9300    0.0000 O   0  0
   -1.6300    3.7800    0.0000 C   0  0
   -1.9475    5.2460    0.0000 O   0  0
    0.9600    3.7800    0.0000 C   0  0
    1.8200    2.1800    0.0000 N   0  0
    3.3500    2.1800    0.0000 C   0  0
    4.0663    3.4979    0.0000 O   0  0
  1  2  1  0
  2  3  1  0
  2  4  1  0
  5  4  1  6
  5  6  1  0
  6  7  1  0
  7  8  2  0
  7  9  1  0
  9 10  1  6
 10 11  1  0
 11 12  1  0
 12 13  1  0
 13 14  1  0
 14 15  1  0
 15 16  2  0
 17 16  1  6
 17 18  1  0
 18 19  1  0
 19 20  2  0
 19 21  1  0
 21 22  1  0
 22 23  1  1
 23 24  1  0
 23 25  1  0
 22 26  1  0
 26 27  2  0
 26 28  1  0
 28  9  1  0
 17 29  1  0
 29 30  1  0
 30 31  2  0
 30 32  1  0
 32 33  1  0
 33 34  1  0
 34  5  1  0
 34 35  2  0
M  END
> <Smiles>
CC(C)C[C@@H]1NC(=O)[C@H]2CSSCC/C=C/[C@H](CC(=O)N[C@H](C(C)C)C(=O)N2)OC(=O)CNC1=O

> <ID>
CHEMBL4754402

> <standard_value>
820

> <IC50_uM>
0.82

> <Activity>
Yes

> <pIC50>
6.086186148

> <BCI>
1

$$$$

  SciTegic03012415362D

 26 28  0  0  0  0            999 V2000
    3.8892   -8.2560    0.0000 C   0  0
    5.1893   -7.5079    0.0000 O   0  0
    5.1924   -6.0070    0.0000 C   0  0
    3.8934   -5.2570    0.0000 C   0  0
    3.8933   -3.7570    0.0000 C   0  0
    2.5951   -3.0039    0.0000 C   0  0
    1.2941   -3.7521    0.0000 C   0  0
   -0.0063   -4.4998    0.0000 N   0  0
    2.5973   -1.5031    0.0000 C   0  0
    1.2990   -0.7500    0.0000 C   0  0
    1.2990    0.7500    0.0000 C   0  0
    0.0000    1.5000    0.0000 C   0  0
   -1.2990    0.7500    0.0000 C   0  0
   -2.5981    1.5000    0.0000 C   0  0
   -3.8971    0.7500    0.0000 C   0  0
   -3.8971   -0.7500    0.0000 C   0  0
   -2.5981   -1.5000    0.0000 C   0  0
   -1.2990   -0.7500    0.0000 C   0  0
    0.0000   -1.5000    0.0000 N   0  0
    5.1925   -3.0070    0.0000 C   0  0
    6.4915   -3.7571    0.0000 C   0  0
    7.7897   -3.0040    0.0000 O   0  0
    7.7876   -1.5040    0.0000 C   0  0
    6.4915   -5.2571    0.0000 C   0  0
    7.7897   -6.0102    0.0000 O   0  0
    7.7875   -7.5102    0.0000 C   0  0
  1  2  1  0
  2  3  1  0
  3  4  2  0
  4  5  1  0
  5  6  1  0
  6  7  1  0
  7  8  3  0
  6  9  2  0
  9 10  1  0
 10 11  2  0
 11 12  1  0
 12 13  2  0
 13 14  1  0
 14 15  2  0
 15 16  1  0
 16 17  2  0
 17 18  1  0
 18 13  1  0
 18 19  2  0
 19 10  1  0
  5 20  2  0
 20 21  1  0
 21 22  1  0
 22 23  1  0
 21 24  2  0
 24  3  1  0
 24 25  1  0
 25 26  1  0
M  END
> <Smiles>
COc1cc(/C(C#N)=C/c2ccc3ccccc3n2)cc(OC)c1OC

> <ID>
CHEMBL3585476

> <standard_value>
835

> <IC50_uM>
0.835

> <Activity>
Yes

> <pIC50>
6.078313525

> <BCI>
1

$$$$

  SciTegic03012415362D

 23 25  0  0  0  0            999 V2000
    0.2919  -10.9165    0.0000 C   0  0
    1.7919  -10.9187    0.0000 O   0  0
    2.5450   -9.6205    0.0000 C   0  0
    1.7951   -8.3214    0.0000 C   0  0
    2.5451   -7.0223    0.0000 C   0  0
    1.7974   -5.7210    0.0000 C   0  0
    2.5497   -4.4224    0.0000 C   0  0
    1.8032   -3.1233    0.0000 C   0  0
    2.4133   -1.7530    0.0000 C   0  0
    1.2990   -0.7500    0.0000 C   0  0
    1.2990    0.7500    0.0000 C   0  0
    0.0000    1.5000    0.0000 C   0  0
   -1.2990    0.7500    0.0000 C   0  0
   -1.2990   -0.7500    0.0000 C   0  0
    0.0000   -1.5000    0.0000 C   0  0
    0.3114   -2.9665    0.0000 O   0  0
    4.0452   -7.0225    0.0000 C   0  0
    4.7951   -8.3215    0.0000 C   0  0
    6.2959   -8.3185    0.0000 O   0  0
    7.0441   -7.0184    0.0000 C   0  0
    4.0450   -9.6205    0.0000 C   0  0
    4.7927  -10.9219    0.0000 O   0  0
    4.0408  -12.2198    0.0000 C   0  0
  1  2  1  0
  2  3  1  0
  3  4  2  0
  4  5  1  0
  5  6  1  0
  6  7  2  0
  7  8  1  0
  8  9  2  0
  9 10  1  0
 10 11  2  0
 11 12  1  0
 12 13  2  0
 13 14  1  0
 14 15  2  0
 15 10  1  0
 15 16  1  0
 16  8  1  0
  5 17  2  0
 17 18  1  0
 18 19  1  0
 19 20  1  0
 18 21  2  0
 21  3  1  0
 21 22  1  0
 22 23  1  0
M  END
> <Smiles>
COc1cc(/C=C/c2cc3ccccc3o2)cc(OC)c1OC

> <ID>
CHEMBL2205251

> <standard_value>
861

> <IC50_uM>
0.861

> <Activity>
Yes

> <pIC50>
6.064996849

> <BCI>
1

$$$$

  SciTegic03012415362D

 28 31  0  0  0  0            999 V2000
    7.5027    3.8990    0.0000 C   0  0
    6.4193    4.9365    0.0000 O   0  0
    4.9781    4.5176    0.0000 C   0  0
    4.6234    3.0602    0.0000 C   0  0
    3.1884    2.6409    0.0000 C   0  0
    2.7248    1.2135    0.0000 N   0  0
    3.6065    0.0000    0.0000 N   0  0
    2.7248   -1.2135    0.0000 N   0  3
    3.1882   -2.6401    0.0000 C   0  0
    1.2990   -0.7500    0.0000 C   0  0
    1.2990    0.7500    0.0000 C   0  0
    0.0000    1.5000    0.0000 C   0  0
    0.0000    3.0000    0.0000 O   0  0
   -1.2990    0.7500    0.0000 C   0  0
   -2.5981    1.5000    0.0000 C   0  0
   -3.8971    0.7500    0.0000 C   0  0
   -3.8971   -0.7500    0.0000 C   0  0
   -2.5981   -1.5000    0.0000 C   0  0
   -1.2990   -0.7500    0.0000 C   0  0
    0.0000   -1.5000    0.0000 C   0  0
    0.0000   -3.0000    0.0000 O   0  0
    2.0990    3.6745    0.0000 C   0  0
    2.4537    5.1320    0.0000 C   0  0
    1.3661    6.1662    0.0000 O   0  0
   -0.0728    5.7426    0.0000 C   0  0
    3.8933    5.5535    0.0000 C   0  0
    4.2512    7.0111    0.0000 O   0  0
    5.6913    7.4306    0.0000 C   0  0
  1  2  1  0
  2  3  1  0
  3  4  2  0
  4  5  1  0
  5  6  1  0
  6  7  1  0
  7  8  2  0
  8  9  1  0
  8 10  1  0
 10 11  2  0
 11  6  1  0
 11 12  1  0
 12 13  2  0
 12 14  1  0
 14 15  2  0
 15 16  1  0
 16 17  2  0
 17 18  1  0
 18 19  2  0
 19 14  1  0
 19 20  1  0
 20 10  1  0
 20 21  2  0
  5 22  2  0
 22 23  1  0
 23 24  1  0
 24 25  1  0
 23 26  2  0
 26  3  1  0
 26 27  1  0
 27 28  1  0
M  CHG  1   8   1
M  END
> <Smiles>
COc1cc(-n2n[n+](C)c3c2C(=O)c2ccccc2C3=O)cc(OC)c1OC.O=S(=O)([O-])C(F)(F)F

> <ID>
CHEMBL3236749

> <standard_value>
870

> <IC50_uM>
0.87

> <Activity>
Yes

> <pIC50>
6.060480747

> <BCI>
1

> <RemovedSalts>
[O-]S(=O)(=O)C(F)(F)F

$$$$

  SciTegic03012415362D

 25 28  0  0  0  0            999 V2000
    5.1873   -7.5109    0.0000 N   0  0
    5.1894   -6.0109    0.0000 C   0  0
    3.8912   -5.2578    0.0000 C   0  0
    3.8933   -3.7570    0.0000 C   0  0
    2.5951   -3.0039    0.0000 C   0  0
    2.5973   -1.5031    0.0000 C   0  0
    1.2990   -0.7500    0.0000 N   0  0
    1.2990    0.7500    0.0000 C   0  0
    0.0000    1.5000    0.0000 C   0  0
   -1.2990    0.7500    0.0000 C   0  0
   -2.5981    1.5000    0.0000 C   0  0
   -3.8971    0.7500    0.0000 C   0  0
   -3.8971   -0.7500    0.0000 C   0  0
   -2.5981   -1.5000    0.0000 C   0  0
   -1.2990   -0.7500    0.0000 C   0  0
    0.0000   -1.5000    0.0000 C   0  0
    0.0000   -3.0000    0.0000 O   0  0
    0.3114    2.9665    0.0000 C   0  0
   -0.6924    4.0811    0.0000 O   0  0
    1.8032    3.1233    0.0000 C   0  0
    2.6837    4.3363    0.0000 C   0  0
    4.1755    4.1795    0.0000 C   0  0
    4.7856    2.8092    0.0000 C   0  0
    3.9040    1.5957    0.0000 C   0  0
    2.4133    1.7530    0.0000 C   0  0
  1  2  1  0
  2  3  1  0
  3  4  1  0
  4  5  1  0
  5  6  1  0
  6  7  1  0
  7  8  1  0
  8  9  2  0
  9 10  1  0
 10 11  2  0
 11 12  1  0
 12 13  2  0
 13 14  1  0
 14 15  2  0
 15 10  1  0
 15 16  1  0
 16  7  1  0
 16 17  2  0
  9 18  1  0
 18 19  2  0
 18 20  1  0
 20 21  2  0
 21 22  1  0
 22 23  2  0
 23 24  1  0
 24 25  2  0
 25 20  1  0
 25  8  1  0
M  END
> <Smiles>
Cl.NCCCCCn1c2c(c3ccccc3c1=O)C(=O)c1ccccc1-2

> <ID>
CHEMBL225093

> <standard_value>
871

> <IC50_uM>
0.871

> <Activity>
Yes

> <pIC50>
6.059981845

> <BCI>
1

> <RemovedSalts>
HCl

$$$$

  SciTegic03012415362D

 21 23  0  0  0  0            999 V2000
    2.5981   -1.5000    0.0000 O   0  0
    1.2990   -0.7500    0.0000 C   0  0
    1.2990    0.7500    0.0000 C   0  0
    2.5972    1.5031    0.0000 C   0  0
    2.5951    3.0039    0.0000 C   0  0
    3.8915    3.7585    0.0000 C   0  0
    3.8863    5.2585    0.0000 C   0  0
    2.5847    6.0040    0.0000 C   0  0
    1.2883    5.2495    0.0000 C   0  0
    1.2934    3.7495    0.0000 C   0  0
    0.0000    1.5000    0.0000 C   0  0
   -1.2990    0.7500    0.0000 N   0  0
   -1.2990   -0.7500    0.0000 C   0  0
    0.0000   -1.5000    0.0000 C   0  0
   -0.0031   -3.0008    0.0000 C   0  0
   -1.3039   -3.7494    0.0000 C   0  0
   -1.3092   -5.2494    0.0000 C   0  0
   -2.6108   -5.9949    0.0000 C   0  0
   -3.9072   -5.2404    0.0000 C   0  0
   -3.9020   -3.7404    0.0000 C   0  0
   -2.6004   -2.9949    0.0000 C   0  0
  1  2  2  0
  2  3  1  0
  3  4  2  0
  4  5  1  0
  5  6  2  0
  6  7  1  0
  7  8  2  0
  8  9  1  0
  9 10  2  0
 10  5  1  0
  3 11  1  0
 11 12  1  0
 12 13  1  0
 13 14  1  0
 14  2  1  0
 14 15  2  0
 15 16  1  0
 16 17  2  0
 17 18  1  0
 18 19  2  0
 19 20  1  0
 20 21  2  0
 21 16  1  0
M  END
> <Smiles>
O=C1/C(=C/c2ccccc2)CNC/C1=C\c1ccccc1

> <ID>
CHEMBL154716

> <standard_value>
900

> <IC50_uM>
0.9

> <Activity>
Yes

> <pIC50>
6.045757491

> <BCI>
1

$$$$

  SciTegic03012415362D

 24 26  0  0  0  0            999 V2000
   -2.3609   -4.0049    0.0000 C   0  0
   -0.9394   -4.4837    0.0000 C   0  0
    0.1873   -3.4922    0.0000 O   0  0
    1.6096   -3.9713    0.0000 C   0  0
    1.9053   -5.4418    0.0000 O   0  0
    2.7343   -2.9815    0.0000 C   0  0
    4.2010   -3.2956    0.0000 C   0  0
    4.8089   -4.6669    0.0000 N   0  0
    4.9531   -1.9978    0.0000 C   0  0
    3.9511   -0.8815    0.0000 C   0  0
    4.2566    0.5871    0.0000 N   0  0
    2.5987   -1.5004    0.0000 N   0  0
    1.2990   -0.7500    0.0000 N   0  0
    1.2990    0.7500    0.0000 C   0  0
    2.5981    1.5000    0.0000 C   0  0
    0.0000    1.5000    0.0000 N   0  0
   -1.2990    0.7500    0.0000 C   0  0
   -2.5981    1.5000    0.0000 C   0  0
   -3.8971    0.7500    0.0000 C   0  0
   -3.8971   -0.7500    0.0000 C   0  0
   -2.5981   -1.5000    0.0000 C   0  0
   -1.2990   -0.7500    0.0000 C   0  0
    0.0000   -1.5000    0.0000 C   0  0
    0.0000   -3.0000    0.0000 O   0  0
  1  2  1  0
  2  3  1  0
  3  4  1  0
  4  5  2  0
  4  6  1  0
  6  7  2  0
  7  8  1  0
  7  9  1  0
  9 10  2  0
 10 11  1  0
 10 12  1  0
 12  6  1  0
 12 13  1  0
 13 14  1  0
 14 15  1  0
 14 16  2  0
 16 17  1  0
 17 18  2  0
 18 19  1  0
 19 20  2  0
 20 21  1  0
 21 22  2  0
 22 17  1  0
 22 23  1  0
 23 13  1  0
 23 24  2  0
M  END
> <Smiles>
CCOC(=O)c1c(N)cc(N)n1-n1c(C)nc2ccccc2c1=O

> <ID>
CHEMBL2297769

> <standard_value>
900

> <IC50_uM>
0.9

> <Activity>
Yes

> <pIC50>
6.045757491

> <BCI>
1

$$$$

  SciTegic03012415362D

 21 22  0  0  0  0            999 V2000
    2.6030   -2.9977    0.0000 N   0  0
    2.6003   -1.4977    0.0000 C   0  0
    3.8983   -0.7459    0.0000 O   0  0
    1.2990   -0.7500    0.0000 C   0  0
    1.2990    0.7500    0.0000 C   0  0
    0.0000    1.5000    0.0000 C   0  0
    0.0000    3.0000    0.0000 I   0  0
   -1.2990    0.7500    0.0000 C   0  0
   -1.2990   -0.7500    0.0000 C   0  0
    0.0000   -1.5000    0.0000 C   0  0
   -0.0031   -3.0008    0.0000 N   0  0
   -1.3039   -3.7494    0.0000 C   0  0
   -2.6016   -2.9971    0.0000 O   0  0
   -1.3070   -5.2502    0.0000 C   0  0
   -2.6078   -5.9988    0.0000 O   0  0
   -2.6109   -7.4996    0.0000 C   0  0
   -3.9099   -8.2497    0.0000 C   0  0
   -3.9099   -9.7497    0.0000 C   0  0
   -2.6109  -10.4997    0.0000 C   0  0
   -1.3119   -9.7497    0.0000 C   0  0
   -1.3118   -8.2497    0.0000 C   0  0
  1  2  1  0
  2  3  2  0
  2  4  1  0
  4  5  2  0
  5  6  1  0
  6  7  1  0
  6  8  2  0
  8  9  1  0
  9 10  2  0
 10  4  1  0
 10 11  1  0
 11 12  1  0
 12 13  2  0
 12 14  1  0
 14 15  1  0
 15 16  1  0
 16 17  2  0
 17 18  1  0
 18 19  2  0
 19 20  1  0
 20 21  2  0
 21 16  1  0
M  END
> <Smiles>
NC(=O)c1cc(I)ccc1NC(=O)COc1ccccc1

> <ID>
CHEMBL3612203

> <standard_value>
934

> <IC50_uM>
0.934

> <Activity>
Yes

> <pIC50>
6.029653124

> <BCI>
1

$$$$

  SciTegic03012415362D

 17 19  0  0  0  0            999 V2000
    3.1882    2.6402    0.0000 C   0  0
    2.7248    1.2135    0.0000 N   0  0
    3.6065    0.0000    0.0000 N   0  0
    2.7248   -1.2135    0.0000 N   0  3
    3.1882   -2.6401    0.0000 C   0  0
    1.2990   -0.7500    0.0000 C   0  0
    1.2990    0.7500    0.0000 C   0  0
    0.0000    1.5000    0.0000 C   0  0
    0.0000    3.0000    0.0000 O   0  0
   -1.2990    0.7500    0.0000 C   0  0
   -2.5981    1.5000    0.0000 C   0  0
   -3.8971    0.7500    0.0000 C   0  0
   -3.8971   -0.7500    0.0000 C   0  0
   -2.5981   -1.5000    0.0000 C   0  0
   -1.2990   -0.7500    0.0000 C   0  0
    0.0000   -1.5000    0.0000 C   0  0
    0.0000   -3.0000    0.0000 O   0  0
  1  2  1  0
  2  3  1  0
  3  4  2  0
  4  5  1  0
  4  6  1  0
  6  7  2  0
  7  2  1  0
  7  8  1  0
  8  9  2  0
  8 10  1  0
 10 11  2  0
 11 12  1  0
 12 13  2  0
 13 14  1  0
 14 15  2  0
 15 10  1  0
 15 16  1  0
 16  6  1  0
 16 17  2  0
M  CHG  1   4   1
M  END
> <Smiles>
Cn1n[n+](C)c2c1C(=O)c1ccccc1C2=O.O=S(=O)([O-])C(F)(F)F

> <ID>
CHEMBL2436403

> <standard_value>
950

> <IC50_uM>
0.95

> <Activity>
Yes

> <pIC50>
6.022276395

> <BCI>
1

> <RemovedSalts>
[O-]S(=O)(=O)C(F)(F)F

$$$$

  SciTegic03012415362D

 31 35  0  0  0  0            999 V2000
    0.5220   -8.0892    0.0000 C   0  0
    2.0049   -8.3149    0.0000 O   0  0
    2.9431   -7.1434    0.0000 C   0  0
    2.3950   -5.7471    0.0000 C   0  0
    3.3303   -4.5744    0.0000 C   0  0
    2.7822   -3.1780    0.0000 C   0  0
    3.7175   -2.0053    0.0000 C   0  0
    5.2007   -2.2289    0.0000 C   0  0
    6.1360   -1.0561    0.0000 C   0  0
    7.6192   -1.2797    0.0000 C   0  0
    8.5525   -0.1043    0.0000 O   0  0
    8.0025    1.2912    0.0000 C   0  0
    8.1672   -2.6760    0.0000 C   0  0
    9.6508   -2.9027    0.0000 O   0  0
   10.1969   -4.2998    0.0000 C   0  0
    7.2320   -3.8487    0.0000 C   0  0
    5.7487   -3.6252    0.0000 C   0  0
    4.8135   -4.7979    0.0000 C   0  0
    5.3615   -6.1942    0.0000 C   0  0
    4.4263   -7.3670    0.0000 C   0  0
    4.9775   -8.7629    0.0000 O   0  0
    6.4611   -8.9844    0.0000 C   0  0
    3.1695   -0.6090    0.0000 C   0  0
    1.6852   -0.3846    0.0000 N   0  0  3  0  0  0
    1.3514    1.0778    0.0000 C   0  0
    0.0000    1.7286    0.0000 C   0  0
   -1.3515    1.0777    0.0000 C   0  0
   -1.6852   -0.3847    0.0000 C   0  0
   -0.7500   -1.5574    0.0000 C   0  0
    0.7500   -1.5574    0.0000 C   0  0  3  0  0  0
    1.2990   -2.9545    0.0000 C   0  0
  1  2  1  0
  2  3  1  0
  3  4  2  0
  4  5  1  0
  5  6  2  0
  6  7  1  0
  7  8  2  0
  8  9  1  0
  9 10  2  0
 10 11  1  0
 11 12  1  0
 10 13  1  0
 13 14  1  0
 14 15  1  0
 13 16  2  0
 16 17  1  0
 17  8  1  0
 17 18  2  0
 18  5  1  0
 18 19  1  0
 19 20  2  0
 20  3  1  0
 20 21  1  0
 21 22  1  0
  7 23  1  0
 24 23  1  4
 24 25  1  0
 25 26  1  0
 26 27  1  0
 27 28  1  0
 28 29  1  0
 30 29  1  4
 30 24  1  0
 30 31  1  0
 31  6  1  0
M  END
> <Smiles>
COc1cc2c3c(c4cc(OC)c(OC)cc4c2cc1OC)CN1CCCCCC1C3

> <ID>
CHEMBL2180705

> <standard_value>
960

> <IC50_uM>
0.96

> <Activity>
Yes

> <pIC50>
6.017728767

> <BCI>
1

$$$$

  SciTegic03012415362D

 34 35  0  0  1  0            999 V2000
   -2.2928   -1.5841    0.0000 C   0  0
   -0.8708   -2.0614    0.0000 S   0  0
    0.2549   -1.0687    0.0000 C   0  0
   -0.0411    0.4026    0.0000 C   0  0
    1.0805    1.3921    0.0000 C   0  0  2  0  0  0
    1.1117    2.9045    0.0000 N   0  0
   -0.0585    3.8372    0.0000 C   0  0
    0.2398    5.3072    0.0000 O   0  0
   -1.4863    3.4383    0.0000 C   0  0
   -2.2309    2.1592    0.0000 C   0  0  1  0  0  0
   -1.9007    0.7071    0.0000 C   0  0
   -3.0988   -0.1591    0.0000 C   0  0
   -3.1207   -1.6433    0.0000 C   0  0
   -2.2504   -2.8618    0.0000 C   0  0
   -0.8607   -3.4534    0.0000 S   0  0
    0.6552   -3.3548    0.0000 S   0  0
    2.0062   -2.6517    0.0000 C   0  0
    2.9767   -1.4794    0.0000 C   0  0  1  0  0  0
    3.3850   -0.0171    0.0000 N   0  0
    2.5567    1.2356    0.0000 C   0  0
    3.3358    2.5174    0.0000 O   0  0
    1.8063   -2.9726    0.0000 C   0  0
    2.7336   -4.1517    0.0000 O   0  0
    0.4409   -3.5936    0.0000 N   0  0
   -1.0591   -3.6055    0.0000 C   0  0  1  0  0  0
   -1.3583   -5.0849    0.0000 C   0  0
   -0.2343   -6.0782    0.0000 C   0  0
   -2.7803   -5.5621    0.0000 C   0  0
   -2.4342   -3.0062    0.0000 C   0  0  2  0  0  0
   -3.3062   -4.2267    0.0000 O   0  0
   -3.4467   -1.8995    0.0000 C   0  0
   -3.9215   -0.4766    0.0000 C   0  0
   -5.4120   -0.6452    0.0000 O   0  0
   -3.7765    1.0163    0.0000 O   0  0
  1  2  1  0
  2  3  1  0
  3  4  1  0
  5  4  1  6
  5  6  1  0
  6  7  1  0
  7  8  2  0
  7  9  1  0
 10  9  1  1
 10 11  1  0
 11 12  2  0
 12 13  1  0
 13 14  1  0
 14 15  1  0
 15 16  1  0
 16 17  1  0
 18 17  1  6
 18 19  1  0
 19 20  1  0
 20  5  1  0
 20 21  2  0
 18 22  1  0
 22 23  2  0
 22 24  1  0
 24 25  1  0
 25 26  1  1
 26 27  1  0
 26 28  1  0
 25 29  1  0
 29 30  1  6
 29 31  1  0
 31 32  1  0
 32 33  2  0
 32 34  1  0
 34 10  1  0
M  END
> <Smiles>
CSCC[C@@H]1NC(=O)C[C@H]2/C=C/CCSSC[C@@H](NC1=O)C(=O)N[C@@H](C(C)C)[C@H](O)CC(=O)O2

> <ID>
CHEMBL3126831

> <standard_value>
960

> <IC50_uM>
0.96

> <Activity>
Yes

> <pIC50>
6.017728767

> <BCI>
1

$$$$

  SciTegic03012415362D

 32 34  0  0  0  0            999 V2000
    2.5981   -1.5000    0.0000 O   0  0
    1.2990   -0.7500    0.0000 C   0  0
    1.2990    0.7500    0.0000 C   0  0
    2.5981    1.5000    0.0000 C   0  0
    3.8971    0.7500    0.0000 O   0  0
    2.5981    3.0000    0.0000 C   0  0
    1.2990    3.7500    0.0000 C   0  0
    0.0000    3.0000    0.0000 C   0  0
   -1.2991    3.7500    0.0000 O   0  0
    0.0000    1.5000    0.0000 C   0  0
   -1.2990    0.7500    0.0000 C   0  0
   -2.5981    1.5000    0.0000 O   0  0
   -1.2990   -0.7500    0.0000 C   0  0
   -2.5981   -1.5000    0.0000 C   0  0
   -3.8994   -0.7523    0.0000 N   0  0
   -5.1981   -1.5046    0.0000 C   0  0
   -6.4994   -0.7568    0.0000 C   0  0
   -7.7980   -1.5091    0.0000 N   0  0
   -9.0993   -0.7614    0.0000 C   0  0
  -10.3980   -1.5136    0.0000 C   0  0
  -11.6986   -0.7663    0.0000 O   0  0
   -2.5981   -3.0000    0.0000 C   0  0
   -1.2990   -3.7500    0.0000 C   0  0
    0.0000   -3.0000    0.0000 C   0  0
    1.2982   -3.7531    0.0000 N   0  0
    1.2961   -5.2539    0.0000 C   0  0
    2.5943   -6.0070    0.0000 C   0  0
    2.5922   -7.5078    0.0000 N   0  0
    3.8904   -8.2609    0.0000 C   0  0
    3.8883   -9.7617    0.0000 C   0  0
    5.1857  -10.5144    0.0000 O   0  0
    0.0000   -1.5000    0.0000 C   0  0
  1  2  2  0
  2  3  1  0
  3  4  2  0
  4  5  1  0
  4  6  1  0
  6  7  2  0
  7  8  1  0
  8  9  1  0
  8 10  2  0
 10  3  1  0
 10 11  1  0
 11 12  2  0
 11 13  1  0
 13 14  2  0
 14 15  1  0
 15 16  1  0
 16 17  1  0
 17 18  1  0
 18 19  1  0
 19 20  1  0
 20 21  1  0
 14 22  1  0
 22 23  2  0
 23 24  1  0
 24 25  1  0
 25 26  1  0
 26 27  1  0
 27 28  1  0
 28 29  1  0
 29 30  1  0
 30 31  1  0
 24 32  2  0
 32 13  1  0
 32  2  1  0
M  END
> <Smiles>
O=C1c2c(O)ccc(O)c2C(=O)c2c(NCCNCCO)ccc(NCCNCCO)c21

> <ID>
CHEMBL58

> <standard_value>
970

> <IC50_uM>
0.97

> <Activity>
Yes

> <pIC50>
6.013228266

> <BCI>
1

$$$$

  SciTegic03012415362D

 23 25  0  0  0  0            999 V2000
    0.2919  -10.9165    0.0000 C   0  0
    1.7919  -10.9187    0.0000 C   0  0
    2.5450   -9.6205    0.0000 C   0  0
    1.7951   -8.3214    0.0000 C   0  0
    2.5451   -7.0223    0.0000 C   0  0
    1.7974   -5.7210    0.0000 C   0  0
    2.5497   -4.4224    0.0000 C   0  0
    1.8032   -3.1233    0.0000 C   0  0
    2.4133   -1.7530    0.0000 C   0  0
    1.2990   -0.7500    0.0000 C   0  0
    1.2990    0.7500    0.0000 C   0  0
    0.0000    1.5000    0.0000 C   0  0
   -1.2990    0.7500    0.0000 C   0  0
   -1.2990   -0.7500    0.0000 C   0  0
    0.0000   -1.5000    0.0000 C   0  0
    0.3114   -2.9665    0.0000 S   0  0
    4.0452   -7.0225    0.0000 C   0  0
    4.7951   -8.3215    0.0000 C   0  0
    6.2959   -8.3185    0.0000 C   0  0
    7.0441   -7.0184    0.0000 C   0  0
    4.0450   -9.6205    0.0000 C   0  0
    4.7927  -10.9219    0.0000 C   0  0
    4.0408  -12.2198    0.0000 C   0  0
  1  2  1  0
  2  3  1  0
  3  4  2  0
  4  5  1  0
  5  6  1  0
  6  7  2  0
  7  8  1  0
  8  9  2  0
  9 10  1  0
 10 11  2  0
 11 12  1  0
 12 13  2  0
 13 14  1  0
 14 15  2  0
 15 10  1  0
 15 16  1  0
 16  8  1  0
  5 17  2  0
 17 18  1  0
 18 19  1  0
 19 20  1  0
 18 21  2  0
 21  3  1  0
 21 22  1  0
 22 23  1  0
M  END
> <Smiles>
CCc1cc(/C=C/c2cc3ccccc3s2)cc(CC)c1CC

> <ID>
CHEMBL3597733

> <standard_value>
985

> <IC50_uM>
0.985

> <Activity>
Yes

> <pIC50>
6.00656377

> <BCI>
1

$$$$

  SciTegic03012415362D

 26 30  0  0  0  0            999 V2000
    2.5981   -1.5000    0.0000 O   0  0
    1.2990   -0.7500    0.0000 C   0  0
    1.2990    0.7500    0.0000 C   0  0
    2.5981    1.5000    0.0000 C   0  0
    2.5981    3.0000    0.0000 C   0  0
    1.2990    3.7500    0.0000 C   0  0
    0.0000    3.0000    0.0000 N   0  0
    0.0000    1.5000    0.0000 C   0  0
   -1.2990    0.7500    0.0000 C   0  0
   -2.5981    1.5000    0.0000 N   0  0
   -3.8971    0.7500    0.0000 C   0  0
   -3.8971   -0.7500    0.0000 C   0  0
   -2.5981   -1.5000    0.0000 C   0  0
   -1.2990   -0.7500    0.0000 C   0  0
    0.0000   -1.5000    0.0000 C   0  0
    0.0000   -3.0000    0.0000 N   0  0
   -1.2990   -3.7500    0.0000 C   0  0
   -1.2990   -5.2500    0.0000 C   0  0
   -2.5981   -6.0000    0.0000 C   0  0
   -3.8971   -5.2500    0.0000 C   0  0
   -5.1984   -5.9978    0.0000 N   0  0
   -6.4971   -5.2455    0.0000 C   0  0
   -7.7984   -5.9933    0.0000 C   0  0
   -9.0963   -5.2414    0.0000 Cl  0  0
   -3.8971   -3.7500    0.0000 C   0  0
   -2.5981   -3.0000    0.0000 C   0  0
  1  2  2  0
  2  3  1  0
  3  4  2  0
  4  5  1  0
  5  6  2  0
  6  7  1  0
  7  8  2  0
  8  3  1  0
  8  9  1  0
  9 10  2  0
 10 11  1  0
 11 12  2  0
 12 13  1  0
 13 14  2  0
 14  9  1  0
 14 15  1  0
 15  2  1  0
 15 16  2  0
 16 17  1  0
 17 18  2  0
 18 19  1  0
 19 20  2  0
 20 21  1  0
 21 22  1  0
 22 23  1  0
 23 24  1  0
 20 25  1  0
 25 26  2  0
 26 17  1  0
 26 13  1  0
M  END
> <Smiles>
O=C1c2cccnc2-c2nccc3c2c1nc1ccc(NCCCl)cc13

> <ID>
CHEMBL442020

> <standard_value>
2

> <IC50_uM>
0.002

> <Activity>
Yes

> <pIC50>
8.698970004

> <BCI>
1

$$$$

  SciTegic03012415362D

 21 23  0  0  0  0            999 V2000
   -1.2250   -6.6252    0.0000 C   0  0
   -0.2234   -5.5086    0.0000 C   0  0
   -0.6890   -4.0818    0.0000 C   0  0
   -2.1581   -3.7751    0.0000 C   0  0
   -3.1585   -4.8928    0.0000 C   0  0
    0.3114   -2.9665    0.0000 N   0  0
    1.8032   -3.1233    0.0000 C   0  0
    2.5532   -4.4223    0.0000 C   0  0
    2.4133   -1.7530    0.0000 C   0  0
    1.2990   -0.7500    0.0000 C   0  0
    1.2990    0.7500    0.0000 C   0  0
    2.5981    1.5000    0.0000 C   0  0
    3.8971    0.7500    0.0000 N   0  0
    2.5981    3.0000    0.0000 N   0  0
    1.2990    3.7500    0.0000 C   0  0
    1.2990    5.2500    0.0000 N   0  0
    0.0000    3.0000    0.0000 N   0  0
    0.0000    1.5000    0.0000 C   0  0
   -1.2990    0.7500    0.0000 C   0  0
   -1.2990   -0.7500    0.0000 C   0  0
    0.0000   -1.5000    0.0000 C   0  0
  1  2  1  0
  2  3  1  0
  3  4  1  0
  4  5  1  0
  3  6  1  0
  6  7  1  0
  7  8  1  0
  7  9  2  0
  9 10  1  0
 10 11  2  0
 11 12  1  0
 12 13  1  0
 12 14  2  0
 14 15  1  0
 15 16  1  0
 15 17  2  0
 17 18  1  0
 18 11  1  0
 18 19  2  0
 19 20  1  0
 20 21  2  0
 21 10  1  0
 21  6  1  0
M  END
> <Smiles>
CCC(CC)n1c(C)cc2c3c(N)nc(N)nc3ccc21

> <ID>
CHEMBL170758

> <standard_value>
2.3

> <IC50_uM>
0.0023

> <Activity>
Yes

> <pIC50>
8.638272164

> <BCI>
1

$$$$

  SciTegic03012415362D

 29 32  0  0  0  0            999 V2000
    2.5981   -1.5000    0.0000 O   0  0
    1.2990   -0.7500    0.0000 C   0  0
    1.2990    0.7500    0.0000 C   0  0
    2.5981    1.5000    0.0000 N   0  0
    2.5981    3.0000    0.0000 C   0  0
    1.2990    3.7500    0.0000 C   0  0
    0.0000    3.0000    0.0000 C   0  0
    0.0000    1.5000    0.0000 C   0  0
   -1.2990    0.7500    0.0000 C   0  0
   -2.1651    1.2500    0.0000 O   0  0
   -1.2990   -0.7500    0.0000 C   0  0
   -2.5981   -1.5000    0.0000 C   0  0
   -3.8978   -0.7496    0.0000 C   0  0
   -5.1957   -1.5017    0.0000 C   0  0
   -6.4959   -0.7537    0.0000 C   0  0
   -6.4983    0.7463    0.0000 C   0  0
   -5.2005    1.4983    0.0000 C   0  0
   -3.9003    0.7504    0.0000 C   0  0
   -2.6033    1.5056    0.0000 N   0  0
   -2.6079    3.0064    0.0000 C   0  0
   -3.9094    3.7520    0.0000 O   0  0
   -1.3109    3.7616    0.0000 C   0  0
   -1.3155    5.2616    0.0000 F   0  0
   -0.0143    4.5158    0.0000 F   0  0
   -0.4432    3.2646    0.0000 F   0  0
   -2.5981   -3.0000    0.0000 C   0  0
   -1.2990   -3.7500    0.0000 C   0  0
    0.0000   -3.0000    0.0000 N   0  0
    0.0000   -1.5000    0.0000 C   0  0
  1  2  2  0
  2  3  1  0
  3  4  2  0
  4  5  1  0
  5  6  2  0
  6  7  1  0
  7  8  2  0
  8  3  1  0
  8  9  1  0
  9 10  2  0
  9 11  1  0
 11 12  2  0
 12 13  1  0
 13 14  2  0
 14 15  1  0
 15 16  2  0
 16 17  1  0
 17 18  2  0
 18 13  1  0
 18 19  1  0
 19 20  1  0
 20 21  2  0
 20 22  1  0
 22 23  1  0
 22 24  1  0
 22 25  1  0
 12 26  1  0
 26 27  2  0
 27 28  1  0
 28 29  2  0
 29 11  1  0
 29  2  1  0
M  END
> <Smiles>
O=C1c2ncccc2C(=O)c2c(-c3ccccc3NC(=O)C(F)(F)F)ccnc21

> <ID>
CHEMBL110742

> <standard_value>
5

> <IC50_uM>
0.005

> <Activity>
Yes

> <pIC50>
8.301029996

> <BCI>
1

$$$$

  SciTegic03012415362D

 69 75  0  0  1  0            999 V2000
    4.6294   11.8520    0.0000 C   0  0
    5.1259   10.4366    0.0000 C   0  0
    6.6353   10.1605    0.0000 C   0  0
    7.1201    8.7121    0.0000 C   0  0  3  0  0  0
    8.6293    8.4137    0.0000 C   0  0
    9.6140    6.8449    0.0000 C   0  0  3  0  0  0
   11.0535    7.3342    0.0000 C   0  0
   12.2125    6.3052    0.0000 C   0  0  1  0  0  0
   13.6370    6.7748    0.0000 O   0  0
   11.8963    4.8050    0.0000 C   0  0
   10.4389    4.3248    0.0000 C   0  0  3  0  0  0
    9.2977    5.3448    0.0000 O   0  0
   10.4803    2.7994    0.0000 C   0  0
   11.2882    1.5004    0.0000 C   0  0
   10.2904    0.3367    0.0000 O   0  0
    8.8819    0.9206    0.0000 C   0  0
    8.9971    2.4447    0.0000 N   0  0
    7.5695    0.1082    0.0000 C   0  0
    6.2247    0.8391    0.0000 C   0  0
    4.9257    0.0312    0.0000 C   0  0
    3.5764    0.7532    0.0000 C   0  0  1  0  0  0
    2.2863   -0.0593    0.0000 O   0  0
    0.9327    0.6761    0.0000 C   0  0  1  0  0  0
   -0.3469   -0.1077    0.0000 C   0  0
   -1.6647    0.6088    0.0000 C   0  0
   -0.3089   -1.6080    0.0000 C   0  0
   -1.5887   -2.3919    0.0000 C   0  0
   -2.9570   -1.8090    0.0000 C   0  0
   -3.9291   -2.9513    0.0000 O   0  0
   -3.1430   -4.2289    0.0000 C   0  0
   -3.7110   -5.6153    0.0000 C   0  0
   -2.7934   -6.8030    0.0000 C   0  0  2  0  0  0
   -3.3625   -8.1909    0.0000 O   0  0
   -2.2655   -5.4208    0.0000 C   0  0
   -0.7790   -5.2200    0.0000 C   0  0  3  0  0  0
   -0.2065   -3.8326    0.0000 O   0  0
    1.2803   -3.6338    0.0000 C   0  0
    0.1382   -6.4069    0.0000 C   0  0
   -0.4311   -7.7946    0.0000 C   0  0  2  0  0  0
    0.4851   -8.9834    0.0000 C   0  0  2  0  0  0
   -0.0865  -10.3703    0.0000 O   0  0
    1.9728   -8.7854    0.0000 C   0  0
    2.8889   -9.9742    0.0000 C   0  0
    2.3173  -11.3610    0.0000 C   0  0
    4.3766   -9.7762    0.0000 C   0  0
    5.2927  -10.9650    0.0000 C   0  0
    6.7804  -10.7669    0.0000 C   0  0  3  0  0  0
    7.6965  -11.9557    0.0000 C   0  0
    9.1842  -11.7577    0.0000 C   0  0
   10.1003  -12.9465    0.0000 C   0  0
   11.5872  -12.7486    0.0000 Br  0  0
    7.3551   -9.3805    0.0000 O   0  0
    8.8422   -9.1842    0.0000 C   0  0
   -1.9175   -7.9955    0.0000 O   0  0
   -1.6851   -3.8761    0.0000 N   0  0
    0.8913    2.2015    0.0000 C   0  0  3  0  0  0
   -0.4296    2.9122    0.0000 C   0  0
    2.1903    3.0094    0.0000 C   0  0  1  0  0  0
    2.1490    4.5348    0.0000 O   0  0
    0.8042    5.2657    0.0000 C   0  0
   -0.4570    4.4538    0.0000 O   0  0
    0.6958    6.7916    0.0000 C   0  0
    1.9639    7.6490    0.0000 C   0  0
    3.3494    6.9759    0.0000 C   0  0
    4.6040    7.8290    0.0000 C   0  0  1  0  0  0
    4.1193    9.2774    0.0000 C   0  0
    6.1579    7.5302    0.0000 O   0  0
    3.5396    2.2874    0.0000 C   0  0  1  0  0  0
    4.8170    3.0737    0.0000 C   0  0
  1  2  2  0
  2  3  1  0
  4  3  1  4
  4  5  1  0
  6  5  1  4
  6  7  1  0
  7  8  1  0
  8  9  1  1
  8 10  1  0
 11 10  1  4
 11 12  1  0
 12  6  1  0
 11 13  1  0
 13 14  2  0
 14 15  1  0
 15 16  1  0
 16 17  2  0
 17 13  1  0
 16 18  1  0
 18 19  2  0
 19 20  1  0
 21 20  1  1
 21 22  1  0
 22 23  1  0
 23 24  1  1
 24 25  1  0
 24 26  2  0
 26 27  1  0
 27 28  2  0
 28 29  1  0
 29 30  1  0
 30 31  1  0
 31 32  1  0
 32 33  1  1
 32 34  1  0
 34 35  1  0
 35 36  1  4
 36 37  1  0
 35 38  1  0
 39 38  1  6
 39 40  1  0
 40 41  1  1
 40 42  1  0
 42 43  2  0
 43 44  1  0
 43 45  1  0
 45 46  2  0
 47 46  1  4
 47 48  1  0
 48 49  1  0
 49 50  2  0
 50 51  1  0
 47 52  1  0
 52 53  1  0
 39 54  1  0
 54 32  1  0
 30 55  2  0
 55 27  1  0
 23 56  1  0
 56 57  1  4
 56 58  1  0
 58 59  1  1
 59 60  1  0
 60 61  2  0
 60 62  1  0
 62 63  2  0
 63 64  1  0
 65 64  1  1
 65 66  1  0
 66  2  1  0
 65 67  1  0
 67  4  1  0
 58 68  1  0
 68 21  1  0
 68 69  1  1
M  END
> <Smiles>
C=C1CC2CC3C[C@@H](O)CC(O3)c3coc(n3)/C=C/C[C@H]3O[C@@H](/C(C)=C/c4coc(C[C@]5(O)CC(OC)C[C@H]([C@H](O)/C=C(C)/C=C/C(C/C=C/Br)OC)O5)n4)C(C)[C@@H](OC(=O)/C=C\C[C@@H](C1)O2)[C@H]3C

> <ID>
CHEMBL217666

> <standard_value>
6.7

> <IC50_uM>
0.0067

> <Activity>
Yes

> <pIC50>
8.173925197

> <BCI>
1

$$$$

  SciTegic03012415362D

 22 25  0  0  0  0            999 V2000
    3.8983   -0.7459    0.0000 C   0  0
    2.6003   -1.4977    0.0000 O   0  0
    1.2990   -0.7500    0.0000 C   0  0
    1.2990    0.7500    0.0000 C   0  0
    0.0000    1.5000    0.0000 C   0  0
   -1.2990    0.7500    0.0000 N   0  0
   -1.2990   -0.7500    0.0000 C   0  0
    0.0000   -1.5000    0.0000 C   0  0
    0.0000   -3.0000    0.0000 C   0  0
    1.2991   -3.7500    0.0000 N   0  0
    1.2991   -5.2500    0.0000 C   0  0
    0.0000   -6.0000    0.0000 C   0  0
   -1.2990   -5.2500    0.0000 C   0  0
   -2.5981   -6.0000    0.0000 C   0  0
   -2.6012   -7.5008    0.0000 O   0  0
   -3.9013   -8.2490    0.0000 C   0  0
   -3.8971   -5.2500    0.0000 C   0  0
   -3.8971   -3.7500    0.0000 N   0  0
   -2.5981   -3.0000    0.0000 C   0  0
   -1.2990   -3.7500    0.0000 C   0  0
   -2.5981   -1.5000    0.0000 C   0  0
   -3.8971   -0.7500    0.0000 O   0  0
  1  2  1  0
  2  3  1  0
  3  4  2  0
  4  5  1  0
  5  6  2  0
  6  7  1  0
  7  8  2  0
  8  3  1  0
  8  9  1  0
  9 10  2  0
 10 11  1  0
 11 12  2  0
 12 13  1  0
 13 14  2  0
 14 15  1  0
 15 16  1  0
 14 17  1  0
 17 18  2  0
 18 19  1  0
 19 20  2  0
 20  9  1  0
 20 13  1  0
 19 21  1  0
 21  7  1  0
 21 22  2  0
M  END
> <Smiles>
COc1ccnc2c1-c1nccc3c(OC)cnc(c13)C2=O

> <ID>
CHEMBL119700

> <standard_value>
7

> <IC50_uM>
0.007

> <Activity>
Yes

> <pIC50>
8.15490196

> <BCI>
1

$$$$

  SciTegic03012415362D

 31 35  0  0  1  0            999 V2000
    8.3099   -1.7900    0.0000 C   0  0
    6.8229   -1.9866    0.0000 O   0  0
    6.2485   -3.3732    0.0000 C   0  0
    7.1641   -4.5614    0.0000 C   0  0
    6.5930   -5.9484    0.0000 C   0  0
    5.1062   -6.1472    0.0000 C   0  0
    4.1906   -4.9591    0.0000 C   0  0
    4.7617   -3.5720    0.0000 C   0  0
    3.8432   -2.3851    0.0000 C   0  0
    2.3559   -2.5861    0.0000 N   0  0
    1.4440   -1.4074    0.0000 C   0  0  1  0  0  0
    0.1097   -0.7860    0.0000 C   0  0  3  0  0  0
   -1.3709   -1.4257    0.0000 C   0  0
   -1.5537    0.0000    0.0000 C   0  0
    0.0000    0.5484    0.0000 N   0  0  3  0  0  0
    0.0000    2.1386    0.0000 C   0  0
    0.3656    1.0236    0.0000 C   0  0
    1.1881    0.0000    0.0000 C   0  0  1  0  0  0
    2.3525    0.9504    0.0000 C   0  0
    3.7558    0.4182    0.0000 C   0  0
    3.9995   -1.0619    0.0000 C   0  0
    5.4031   -1.5910    0.0000 C   0  0
    6.5631   -0.6400    0.0000 C   0  0
    6.3195    0.8401    0.0000 C   0  0
    4.9159    1.3692    0.0000 C   0  0
    2.1109    2.4316    0.0000 C   0  0
    0.7091    2.9656    0.0000 C   0  0
    0.4706    4.4465    0.0000 C   0  0
    1.6339    5.3936    0.0000 C   0  0
    3.0356    4.8597    0.0000 C   0  0
    3.2741    3.3788    0.0000 C   0  0
  1  2  1  0
  2  3  1  0
  3  4  2  0
  4  5  1  0
  5  6  2  0
  6  7  1  0
  7  8  2  0
  8  3  1  0
  8  9  1  0
  9 10  1  0
 11 10  1  1
 11 12  1  0
 12 13  1  4
 13 14  1  0
 15 14  1  4
 15 16  1  0
 16 17  1  0
 17 12  1  0
 15 18  1  0
 18 11  1  0
 18 19  1  1
 19 20  1  0
 20 21  2  0
 21 22  1  0
 22 23  2  0
 23 24  1  0
 24 25  2  0
 25 20  1  0
 19 26  1  0
 26 27  2  0
 27 28  1  0
 28 29  2  0
 29 30  1  0
 30 31  2  0
 31 26  1  0
M  END
> <Smiles>
COc1ccccc1CN[C@H]1C2CCN(CC2)[C@H]1C(c1ccccc1)c1ccccc1

> <ID>
CHEMBL16192

> <standard_value>
9

> <IC50_uM>
0.009

> <Activity>
Yes

> <pIC50>
8.045757491

> <BCI>
1

$$$$

  SciTegic03012415362D

 43 50  0  0  1  0            999 V2000
    2.5981   -1.5000    0.0000 C   0  0
    1.2990   -0.7500    0.0000 C   0  0  2  0  0  0
    1.2990    0.7500    0.0000 C   0  0
    0.0000    1.5000    0.0000 C   0  0  2  0  0  0
    0.5753    2.9306    0.0000 N   0  0
   -0.5394    3.9343    0.0000 C   0  0
   -0.3826    5.4260    0.0000 O   0  0
   -1.8384    3.1842    0.0000 C   0  0
   -1.5266    1.7170    0.0000 S   0  0
   -1.2990    0.7500    0.0000 C   0  0  3  0  0  0
   -1.2991    2.2500    0.0000 O   0  0
   -2.5981    1.5000    0.0000 O   0  0
   -3.8971    0.7500    0.0000 C   0  0  2  0  0  0
   -5.1962    1.5000    0.0000 C   0  0
   -6.4952    0.7500    0.0000 C   0  0  1  0  0  0
   -5.1954   -0.0004    0.0000 C   0  0
   -3.8959    0.7487    0.0000 O   0  0
   -6.4952   -0.7500    0.0000 C   0  0  1  0  0  0
   -7.7942   -1.5001    0.0000 C   0  0
   -9.0933   -0.7501    0.0000 C   0  0
   -9.0933    0.7499    0.0000 C   0  0  2  0  0  0
   -7.7943    1.4999    0.0000 C   0  0  2  0  0  0
   -7.7943    3.0000    0.0000 C   0  0
   -9.0933    3.7499    0.0000 C   0  0
  -10.3923    2.9999    0.0000 C   0  0  2  0  0  0
  -10.5474    4.4919    0.0000 C   0  0
  -11.8073    3.4634    0.0000 C   0  0  1  0  0  0
  -12.2694    4.8913    0.0000 C   0  0
  -11.4786    6.1452    0.0000 C   0  0
  -12.4521    7.2863    0.0000 C   0  0
  -12.1012    8.7447    0.0000 O   0  0
  -13.8383    6.7130    0.0000 O   0  0
  -13.7214    5.2176    0.0000 C   0  0
  -12.6890    2.2499    0.0000 C   0  0
  -11.8073    1.0364    0.0000 C   0  0
  -10.3923    1.4999    0.0000 C   0  0  2  0  0  0
  -10.4964    0.0054    0.0000 C   0  0
  -11.8434   -0.6546    0.0000 O   0  0
   -5.1961   -1.5000    0.0000 C   0  0
   -3.8971   -0.7500    0.0000 C   0  0  1  0  0  0
   -2.5981   -1.5000    0.0000 O   0  0
   -1.2990   -0.7500    0.0000 C   0  0  2  0  0  0
    0.0000   -1.5000    0.0000 O   0  0
  2  1  1  1
  2  3  1  0
  4  3  1  1
  4  5  1  0
  5  6  1  0
  6  7  2  0
  6  8  1  0
  8  9  1  0
  9  4  1  0
  4 10  1  0
 10 11  1  4
 10 12  1  0
 13 12  1  1
 13 14  1  0
 14 15  1  0
 15 16  1  6
 16 17  1  0
 15 18  1  0
 18 19  1  6
 19 20  1  0
 21 20  1  1
 21 22  1  0
 22 15  1  0
 22 23  1  6
 23 24  1  0
 24 25  1  0
 25 26  1  6
 25 27  1  0
 27 28  1  6
 28 29  2  0
 29 30  1  0
 30 31  2  0
 30 32  1  0
 32 33  1  0
 33 28  1  0
 27 34  1  0
 34 35  1  0
 35 36  1  0
 36 21  1  0
 36 25  1  0
 36 37  1  6
 37 38  1  0
 18 39  1  0
 40 39  1  6
 40 13  1  0
 40 41  1  0
 42 41  1  1
 42 10  1  0
 42 43  1  0
 43  2  1  0
M  END
> <Smiles>
C[C@@H]1C[C@@]2(NC(=O)CS2)C2(O)O[C@@H]3C[C@@]4(CO)[C@@H](CC[C@@H]5[C@@H]4CC[C@]4(C)[C@@H](C6=CC(=O)OC6)CC[C@]54CO)C[C@H]3O[C@@H]2O1

> <ID>
CHEMBL178993

> <standard_value>
9

> <IC50_uM>
0.009

> <Activity>
Yes

> <pIC50>
8.045757491

> <BCI>
1

$$$$

  SciTegic03012415362D

 27 29  0  0  0  0            999 V2000
    9.0945    0.7599    0.0000 C   0  0
    9.0967   -0.7401    0.0000 O   0  0
    7.7985   -1.4932    0.0000 C   0  0
    6.4994   -0.7432    0.0000 C   0  0
    5.2003   -1.4932    0.0000 C   0  0
    3.8990   -0.7455    0.0000 N   0  0
    2.6003   -1.4977    0.0000 C   0  0
    1.2990   -0.7500    0.0000 C   0  0
    1.2990    0.7500    0.0000 C   0  0
    0.0000    1.5000    0.0000 C   0  0
   -1.2990    0.7500    0.0000 C   0  0
   -2.5981    1.5000    0.0000 N   0  0
   -3.8971    0.7500    0.0000 C   0  0
   -5.1962    1.5000    0.0000 N   0  0
   -3.8971   -0.7500    0.0000 N   0  0
   -2.5981   -1.5000    0.0000 C   0  0
   -2.5981   -3.0000    0.0000 N   0  0
   -1.2990   -0.7500    0.0000 C   0  0
    0.0000   -1.5000    0.0000 C   0  0
    0.0000   -3.0000    0.0000 C   0  0
    5.2004   -2.9933    0.0000 C   0  0
    6.4995   -3.7432    0.0000 C   0  0
    6.4964   -5.2441    0.0000 O   0  0
    5.1964   -5.9923    0.0000 C   0  0
    7.7985   -2.9932    0.0000 C   0  0
    9.0998   -3.7409    0.0000 O   0  0
   10.3978   -2.9890    0.0000 C   0  0
  1  2  1  0
  2  3  1  0
  3  4  2  0
  4  5  1  0
  5  6  1  0
  6  7  1  0
  7  8  1  0
  8  9  2  0
  9 10  1  0
 10 11  2  0
 11 12  1  0
 12 13  2  0
 13 14  1  0
 13 15  1  0
 15 16  2  0
 16 17  1  0
 16 18  1  0
 18 11  1  0
 18 19  2  0
 19  8  1  0
 19 20  1  0
  5 21  2  0
 21 22  1  0
 22 23  1  0
 23 24  1  0
 22 25  2  0
 25  3  1  0
 25 26  1  0
 26 27  1  0
M  END
> <Smiles>
COc1cc(NCc2ccc3nc(N)nc(N)c3c2C)cc(OC)c1OC

> <ID>
CHEMBL119

> <standard_value>
9.6

> <IC50_uM>
0.0096

> <Activity>
Yes

> <pIC50>
8.017728767

> <BCI>
1

$$$$

  SciTegic03012415362D

 24 28  0  0  0  0            999 V2000
    2.5981   -1.5000    0.0000 N   0  0
    1.2990   -0.7500    0.0000 C   0  0
    1.2990    0.7500    0.0000 C   0  0
    0.0000    1.5000    0.0000 C   0  0
   -1.2990    0.7500    0.0000 C   0  0
   -2.5981    1.5000    0.0000 N   0  0
   -3.8971    0.7500    0.0000 C   0  0
   -3.8971   -0.7500    0.0000 C   0  0
   -5.1962   -1.5000    0.0000 C   0  0
   -5.1961   -3.0000    0.0000 N   0  0
   -3.8971   -3.7500    0.0000 C   0  0
   -2.5981   -3.0000    0.0000 C   0  0
   -2.5981   -1.5000    0.0000 C   0  0
   -1.2990   -0.7500    0.0000 C   0  0
    0.0000   -1.5000    0.0000 C   0  0
    0.0000   -3.0000    0.0000 Br  0  0
   -6.4952   -0.7500    0.0000 C   0  0
   -7.7942   -1.5000    0.0000 N   0  0
   -9.0933   -0.7500    0.0000 C   0  0
   -9.0933    0.7500    0.0000 C   0  0
   -7.7942    1.5000    0.0000 C   0  0
   -6.4952    0.7500    0.0000 C   0  0
   -5.1962    1.5000    0.0000 C   0  0
   -5.1962    3.0000    0.0000 O   0  0
  1  2  1  0
  2  3  2  0
  3  4  1  0
  4  5  2  0
  5  6  1  0
  6  7  2  0
  7  8  1  0
  8  9  2  0
  9 10  1  0
 10 11  2  0
 11 12  1  0
 12 13  2  0
 13  8  1  0
 13 14  1  0
 14  5  1  0
 14 15  2  0
 15  2  1  0
 15 16  1  0
  9 17  1  0
 17 18  2  0
 18 19  1  0
 19 20  2  0
 20 21  1  0
 21 22  2  0
 22 17  1  0
 22 23  1  0
 23  7  1  0
 23 24  2  0
M  END
> <Smiles>
Nc1ccc2nc3c4c(nccc4c2c1Br)-c1ncccc1C3=O

> <ID>
CHEMBL122076

> <standard_value>
10

> <IC50_uM>
0.01

> <Activity>
Yes

> <pIC50>
8

> <BCI>
1

$$$$

  SciTegic03012415362D

 27 30  0  0  1  0            999 V2000
    7.1851   -3.6075    0.0000 C   0  0
    6.3037   -4.8211    0.0000 C   0  0
    5.6935   -3.4508    0.0000 C   0  0
    4.8111   -4.6641    0.0000 C   0  0
    4.2010   -3.2956    0.0000 C   0  0
    2.7343   -2.9815    0.0000 N   0  0
    2.5987   -1.5004    0.0000 C   0  0  2  0  0  0
    1.2990   -0.7500    0.0000 C   0  0
    1.2990    0.7500    0.0000 C   0  0
    0.0000    1.5000    0.0000 C   0  0
   -1.2990    0.7500    0.0000 C   0  0
   -1.2990   -0.7500    0.0000 C   0  0
    0.0000   -1.5000    0.0000 C   0  0
    3.9511   -0.8815    0.0000 C   0  0  2  0  0  0
    4.2567    0.5878    0.0000 C   0  0
    3.2235    1.6679    0.0000 C   0  0
    3.6446    3.1076    0.0000 C   0  0
    5.1019    3.4627    0.0000 C   0  0
    6.1382    2.3782    0.0000 C   0  0
    5.7171    0.9385    0.0000 C   0  0
    4.9531   -1.9978    0.0000 N   0  0
    6.9148   -6.1919    0.0000 C   0  0
    6.0337   -7.4059    0.0000 C   0  0
    6.6445   -8.7759    0.0000 C   0  0
    8.1364   -8.9319    0.0000 C   0  0
    9.0174   -7.7180    0.0000 C   0  0
    8.4066   -6.3480    0.0000 C   0  0
  1  2  1  0
  2  3  1  0
  2  4  1  0
  4  5  1  0
  5  6  2  0
  6  7  1  0
  7  8  1  6
  8  9  2  0
  9 10  1  0
 10 11  2  0
 11 12  1  0
 12 13  2  0
 13  8  1  0
  7 14  1  0
 14 15  1  6
 15 16  2  0
 16 17  1  0
 17 18  2  0
 18 19  1  0
 19 20  2  0
 20 15  1  0
 14 21  1  0
 21  5  1  0
  2 22  1  0
 22 23  2  0
 23 24  1  0
 24 25  2  0
 25 26  1  0
 26 27  2  0
 27 22  1  0
M  END
> <Smiles>
CC(C)(CC1=N[C@H](c2ccccc2)[C@H](c2ccccc2)N1)c1ccccc1

> <ID>
CHEMBL180397

> <standard_value>
10

> <IC50_uM>
0.01

> <Activity>
Yes

> <pIC50>
8

> <BCI>
1

$$$$

  SciTegic03012415362D

 21 23  0  0  0  0            999 V2000
   -2.7016   -5.7013    0.0000 C   0  0
   -1.9580   -7.0040    0.0000 O   0  0
   -0.4572   -7.0123    0.0000 C   0  0
    0.2883   -8.3139    0.0000 C   0  0
    1.7883   -8.3192    0.0000 C   0  0
    2.5428   -7.0227    0.0000 C   0  0
    1.7974   -5.7210    0.0000 C   0  0
    2.5497   -4.4224    0.0000 C   0  0
    4.0497   -4.4250    0.0000 O   0  0
    1.8032   -3.1233    0.0000 C   0  0
    2.4133   -1.7530    0.0000 C   0  0
    1.2990   -0.7500    0.0000 C   0  0
    1.2990    0.7500    0.0000 C   0  0
    0.0000    1.5000    0.0000 C   0  0
   -0.0031    3.0008    0.0000 O   0  0
   -1.3032    3.7490    0.0000 C   0  0
   -1.2990    0.7500    0.0000 C   0  0
   -1.2990   -0.7500    0.0000 C   0  0
    0.0000   -1.5000    0.0000 C   0  0
    0.3114   -2.9665    0.0000 N   0  0
    0.2973   -5.7159    0.0000 C   0  0
  1  2  1  0
  2  3  1  0
  3  4  2  0
  4  5  1  0
  5  6  2  0
  6  7  1  0
  7  8  1  0
  8  9  2  0
  8 10  1  0
 10 11  2  0
 11 12  1  0
 12 13  2  0
 13 14  1  0
 14 15  1  0
 15 16  1  0
 14 17  2  0
 17 18  1  0
 18 19  2  0
 19 12  1  0
 19 20  1  0
 20 10  1  0
  7 21  2  0
 21  3  1  0
M  END
> <Smiles>
COc1cccc(C(=O)c2cc3cc(OC)ccc3[nH]2)c1

> <ID>
CHEMBL140363

> <standard_value>
10.7

> <IC50_uM>
0.0107

> <Activity>
Yes

> <pIC50>
7.970616222

> <BCI>
1

$$$$

  SciTegic03012415362D

 35 39  0  0  1  0            999 V2000
    6.4863   -8.2382    0.0000 C   0  0
    7.7879   -7.4927    0.0000 C   0  0
    9.0844   -8.2472    0.0000 C   0  0
   10.3860   -7.5016    0.0000 C   0  0
   11.6824   -8.2560    0.0000 C   0  0
   10.3911   -6.0016    0.0000 C   0  0
    9.0947   -5.2471    0.0000 C   0  0
    9.0967   -3.7463    0.0000 C   0  0
   10.3971   -2.9985    0.0000 O   0  0
    7.7985   -2.9932    0.0000 N   0  0
    6.4995   -3.7432    0.0000 C   0  0
    5.2004   -2.9933    0.0000 C   0  0
    5.2003   -1.4932    0.0000 C   0  0  2  0  0  0
    3.8990   -0.7455    0.0000 N   0  0
    2.6003   -1.4977    0.0000 C   0  0
    1.2990   -0.7500    0.0000 C   0  0
    1.2990    0.7500    0.0000 C   0  0
    0.0000    1.5000    0.0000 C   0  0
   -1.2990    0.7500    0.0000 N   0  0
   -1.2990   -0.7500    0.0000 C   0  0
   -2.5981   -1.5000    0.0000 C   0  0
   -2.5981   -3.0000    0.0000 C   0  0
   -1.2990   -3.7500    0.0000 C   0  0
    0.0000   -3.0000    0.0000 C   0  0
    0.0000   -1.5000    0.0000 C   0  0
    6.4994   -0.7432    0.0000 C   0  0
    7.7985   -1.4932    0.0000 C   0  0  1  0  0  0
    9.0967   -0.7401    0.0000 C   0  0
    9.0945    0.7607    0.0000 C   0  0
   10.3909    1.5154    0.0000 C   0  0
   10.3856    3.0154    0.0000 C   0  0
    9.0840    3.7608    0.0000 C   0  0
    7.7876    3.0063    0.0000 C   0  0
    7.7928    1.5063    0.0000 C   0  0
    7.7930   -5.9927    0.0000 C   0  0
  1  2  1  0
  2  3  2  0
  3  4  1  0
  4  5  1  0
  4  6  2  0
  6  7  1  0
  7  8  1  0
  8  9  2  0
  8 10  1  0
 10 11  1  0
 11 12  1  0
 12 13  1  0
 13 14  1  6
 14 15  1  0
 15 16  1  0
 16 17  2  0
 17 18  1  0
 18 19  2  0
 19 20  1  0
 20 21  2  0
 21 22  1  0
 22 23  2  0
 23 24  1  0
 24 25  2  0
 25 16  1  0
 25 20  1  0
 13 26  1  0
 26 27  1  0
 27 10  1  0
 27 28  1  1
 28 29  1  0
 29 30  2  0
 30 31  1  0
 31 32  2  0
 32 33  1  0
 33 34  2  0
 34 29  1  0
  7 35  2  0
 35  2  1  0
M  END
> <Smiles>
Cc1cc(C)cc(C(=O)N2CC[C@H](NCc3ccnc4ccccc34)C[C@H]2Cc2ccccc2)c1

> <ID>
CHEMBL290364

> <standard_value>
12

> <IC50_uM>
0.012

> <Activity>
Yes

> <pIC50>
7.920818754

> <BCI>
1

$$$$

  SciTegic03012415362D

 43 50  0  0  1  0            999 V2000
    2.5981   -1.5000    0.0000 C   0  0
    1.2990   -0.7500    0.0000 C   0  0  2  0  0  0
    1.2990    0.7500    0.0000 C   0  0
    0.0000    1.5000    0.0000 C   0  0  2  0  0  0
    0.5753    2.9306    0.0000 N   0  0
   -0.5394    3.9343    0.0000 C   0  0
   -0.3826    5.4260    0.0000 O   0  0
   -1.8384    3.1842    0.0000 C   0  0
   -1.5266    1.7170    0.0000 S   0  0
   -1.2990    0.7500    0.0000 C   0  0  2  0  0  0
   -1.2991    2.2500    0.0000 O   0  0
   -2.5981    1.5000    0.0000 O   0  0
   -3.8971    0.7500    0.0000 C   0  0  2  0  0  0
   -5.1962    1.5000    0.0000 C   0  0
   -6.4952    0.7500    0.0000 C   0  0  1  0  0  0
   -5.1954   -0.0004    0.0000 C   0  0
   -3.8959    0.7487    0.0000 O   0  0
   -6.4952   -0.7500    0.0000 C   0  0  1  0  0  0
   -7.7942   -1.5001    0.0000 C   0  0
   -9.0933   -0.7501    0.0000 C   0  0
   -9.0933    0.7499    0.0000 C   0  0  2  0  0  0
   -7.7943    1.4999    0.0000 C   0  0  2  0  0  0
   -7.7943    3.0000    0.0000 C   0  0
   -9.0933    3.7499    0.0000 C   0  0
  -10.3923    2.9999    0.0000 C   0  0  2  0  0  0
  -10.5474    4.4919    0.0000 C   0  0
  -11.8073    3.4634    0.0000 C   0  0  1  0  0  0
  -12.2694    4.8913    0.0000 C   0  0
  -11.4786    6.1452    0.0000 C   0  0
  -12.4521    7.2863    0.0000 C   0  0
  -12.1012    8.7447    0.0000 O   0  0
  -13.8383    6.7130    0.0000 O   0  0
  -13.7214    5.2176    0.0000 C   0  0
  -12.6890    2.2499    0.0000 C   0  0
  -11.8073    1.0364    0.0000 C   0  0
  -10.3923    1.4999    0.0000 C   0  0  2  0  0  0
  -10.4964    0.0054    0.0000 C   0  0
  -11.8434   -0.6546    0.0000 O   0  0
   -5.1961   -1.5000    0.0000 C   0  0
   -3.8971   -0.7500    0.0000 C   0  0  1  0  0  0
   -2.5981   -1.5000    0.0000 O   0  0
   -1.2990   -0.7500    0.0000 C   0  0  2  0  0  0
    0.0000   -1.5000    0.0000 O   0  0
  2  1  1  1
  2  3  1  0
  4  3  1  1
  4  5  1  0
  5  6  1  0
  6  7  2  0
  6  8  1  0
  8  9  1  0
  9  4  1  0
  4 10  1  0
 10 11  1  6
 10 12  1  0
 13 12  1  1
 13 14  1  0
 14 15  1  0
 15 16  1  6
 16 17  2  0
 15 18  1  0
 18 19  1  6
 19 20  1  0
 21 20  1  1
 21 22  1  0
 22 15  1  0
 22 23  1  6
 23 24  1  0
 24 25  1  0
 25 26  1  6
 25 27  1  0
 27 28  1  6
 28 29  2  0
 29 30  1  0
 30 31  2  0
 30 32  1  0
 32 33  1  0
 33 28  1  0
 27 34  1  0
 34 35  1  0
 35 36  1  0
 36 21  1  0
 36 25  1  0
 36 37  1  6
 37 38  1  0
 18 39  1  0
 40 39  1  6
 40 13  1  0
 40 41  1  0
 42 41  1  1
 42 10  1  0
 42 43  1  0
 43  2  1  0
M  END
> <Smiles>
C[C@@H]1C[C@@]2(NC(=O)CS2)[C@]2(O)O[C@@H]3C[C@@]4(C=O)[C@@H](CC[C@@H]5[C@@H]4CC[C@]4(C)[C@@H](C6=CC(=O)OC6)CC[C@]54CO)C[C@H]3O[C@@H]2O1

> <ID>
CHEMBL368047

> <standard_value>
15

> <IC50_uM>
0.015

> <Activity>
Yes

> <pIC50>
7.823908741

> <BCI>
1

$$$$

  SciTegic03012415362D

 36 40  0  0  1  0            999 V2000
    2.6030   -2.9977    0.0000 O   0  0
    2.6003   -1.4977    0.0000 C   0  0
    3.8990   -0.7455    0.0000 N   0  0
    5.2003   -1.4932    0.0000 C   0  0  1  0  0  0
    6.4994   -0.7432    0.0000 C   0  0
    7.7985   -1.4932    0.0000 C   0  0
    7.7985   -2.9932    0.0000 N   0  0
    9.0998   -3.7409    0.0000 C   0  0
    9.1025   -5.2409    0.0000 O   0  0
   10.3985   -2.9886    0.0000 C   0  0
   11.7002   -3.7340    0.0000 C   0  0
   12.9966   -2.9795    0.0000 C   0  0
   14.2983   -3.7250    0.0000 Cl  0  0
   12.9914   -1.4795    0.0000 C   0  0
   11.6898   -0.7340    0.0000 C   0  0
   11.6845    0.7659    0.0000 Cl  0  0
   10.3933   -1.4886    0.0000 C   0  0
    6.4995   -3.7432    0.0000 C   0  0  2  0  0  0
    6.5026   -5.2441    0.0000 C   0  0
    5.2049   -5.9980    0.0000 C   0  0
    5.2058   -7.4980    0.0000 C   0  0
    3.9073   -8.2489    0.0000 C   0  0
    2.6078   -7.4998    0.0000 C   0  0
    2.6067   -5.9998    0.0000 C   0  0
    3.9053   -5.2489    0.0000 C   0  0
    5.2004   -2.9933    0.0000 C   0  0
    1.2990   -0.7500    0.0000 C   0  0
    1.2990    0.7500    0.0000 C   0  0
    0.0000    1.5000    0.0000 C   0  0
   -1.2990    0.7500    0.0000 N   0  0
   -1.2990   -0.7500    0.0000 C   0  0
   -2.5981   -1.5000    0.0000 C   0  0
   -2.5981   -3.0000    0.0000 C   0  0
   -1.2990   -3.7500    0.0000 C   0  0
    0.0000   -3.0000    0.0000 C   0  0
    0.0000   -1.5000    0.0000 C   0  0
  1  2  2  0
  2  3  1  0
  4  3  1  1
  4  5  1  0
  5  6  1  0
  6  7  1  0
  7  8  1  0
  8  9  2  0
  8 10  1  0
 10 11  2  0
 11 12  1  0
 12 13  1  0
 12 14  2  0
 14 15  1  0
 15 16  1  0
 15 17  2  0
 17 10  1  0
  7 18  1  0
 18 19  1  6
 19 20  1  0
 20 21  2  0
 21 22  1  0
 22 23  2  0
 23 24  1  0
 24 25  2  0
 25 20  1  0
 18 26  1  0
 26  4  1  0
  2 27  1  0
 27 28  2  0
 28 29  1  0
 29 30  2  0
 30 31  1  0
 31 32  2  0
 32 33  1  0
 33 34  2  0
 34 35  1  0
 35 36  2  0
 36 27  1  0
 36 31  1  0
M  END
> <Smiles>
O=C(N[C@H]1CCN(C(=O)c2cc(Cl)cc(Cl)c2)[C@H](Cc2ccccc2)C1)c1ccnc2ccccc12

> <ID>
CHEMBL43912

> <standard_value>
24

> <IC50_uM>
0.024

> <Activity>
Yes

> <pIC50>
7.619788758

> <BCI>
1

$$$$

  SciTegic03012415362D

 68 74  0  0  1  0            999 V2000
  -17.3572  -11.0107    0.0000 C   0  0
  -15.8616  -11.1254    0.0000 C   0  0
  -14.3651  -11.2402    0.0000 C   0  0
  -13.5167  -10.0022    0.0000 C   0  0  2  0  0  0
  -12.0203  -10.1170    0.0000 C   0  0
  -11.1719   -8.8789    0.0000 C   0  0
   -9.6755   -8.9937    0.0000 C   0  0
   -9.0274  -10.3465    0.0000 C   0  0
   -8.8271   -7.7557    0.0000 C   0  0
   -7.3306   -7.8705    0.0000 C   0  0  1  0  0  0
   -6.6826   -9.2233    0.0000 O   0  0
   -6.4822   -6.6324    0.0000 C   0  0  1  0  0  0
   -4.9865   -6.7450    0.0000 C   0  0
   -4.1411   -5.5059    0.0000 C   0  0  1  0  0  0
   -2.6447   -5.6216    0.0000 O   0  0
   -1.9963   -6.9742    0.0000 C   0  0
   -4.7915   -4.1543    0.0000 C   0  0
   -6.2692   -4.0792    0.0000 C   0  0  1  0  0  0
   -7.7650   -3.9669    0.0000 O   0  0
   -5.4231   -2.8396    0.0000 C   0  0
   -3.9291   -2.9513    0.0000 C   0  0
   -2.9570   -1.8090    0.0000 N   0  0
   -1.5887   -2.3919    0.0000 C   0  0
   -0.3089   -1.6080    0.0000 C   0  0
    1.0104   -2.3236    0.0000 C   0  0
    1.0497   -3.8231    0.0000 C   0  0
    2.2900   -1.5400    0.0000 C   0  0  2  0  0  0
    2.2500    0.0000    0.0000 O   0  0
    3.5600    0.7800    0.0000 C   0  0  2  0  0  0
    3.5300    2.3100    0.0000 C   0  0
    4.8400    3.1000    0.0000 C   0  0
    4.8000    4.6300    0.0000 C   0  0
    6.1200    5.4300    0.0000 C   0  0
    7.5300    4.8400    0.0000 N   0  0
    8.5200    6.0000    0.0000 C   0  0
    7.7300    7.3100    0.0000 C   0  0
    6.2400    6.9500    0.0000 O   0  0
    9.8600    5.2700    0.0000 C   0  0  1  0  0  0
   10.9500    6.3500    0.0000 C   0  0
   12.4300    5.9500    0.0000 C   0  0  2  0  0  0
   13.4957    7.0056    0.0000 O   0  0
   12.8200    4.4500    0.0000 C   0  0
   11.7300    3.3900    0.0000 C   0  0  1  0  0  0
   12.6800    1.8000    0.0000 C   0  0
   12.2600    0.3200    0.0000 C   0  0  1  0  0  0
   13.3300   -0.7700    0.0000 C   0  0
   12.8900   -2.2400    0.0000 C   0  0
   13.9252   -3.3255    0.0000 C   0  0
   11.4000   -2.6100    0.0000 C   0  0
   10.3300   -1.5200    0.0000 C   0  0  2  0  0  0
    9.0000   -2.2500    0.0000 C   0  0
    8.9700   -3.7900    0.0000 C   0  0
    7.6300   -4.5300    0.0000 C   0  0
    6.3200   -3.7400    0.0000 C   0  0
    5.0236   -4.4946    0.0000 O   0  0
    6.2800   -2.2100    0.0000 O   0  0
    4.9400   -1.4800    0.0000 C   0  0  1  0  0  0
    4.9100    0.0500    0.0000 C   0  0  1  0  0  0
    6.1909    0.8306    0.0000 C   0  0
    3.6300   -2.2700    0.0000 C   0  0  1  0  0  0
    3.6629   -3.7696    0.0000 C   0  0
   10.7700    0.0000    0.0000 O   0  0
   10.2500    3.7900    0.0000 O   0  0
   -1.6851   -3.8761    0.0000 C   0  0
   -3.1430   -4.2289    0.0000 O   0  0
   -7.1326   -5.2808    0.0000 O   0  0
  -14.1623   -8.6473    0.0000 O   0  0
  -13.3130   -7.4109    0.0000 C   0  0
  1  2  3  0
  2  3  1  0
  4  3  1  1
  4  5  1  0
  5  6  2  0
  6  7  1  0
  7  8  1  0
  7  9  2  0
  9 10  1  0
 10 11  1  6
 10 12  1  0
 12 13  1  6
 13 14  1  0
 14 15  1  6
 15 16  1  0
 14 17  1  0
 17 18  1  0
 18 19  1  1
 18 20  1  0
 20 21  1  0
 21 22  2  0
 22 23  1  0
 23 24  1  0
 24 25  2  0
 25 26  1  0
 27 25  1  6
 27 28  1  0
 29 28  1  6
 29 30  1  0
 30 31  1  0
 31 32  2  0
 32 33  1  0
 33 34  2  0
 34 35  1  0
 35 36  2  0
 36 37  1  0
 37 33  1  0
 35 38  1  0
 38 39  1  1
 39 40  1  0
 40 41  1  6
 40 42  1  0
 43 42  1  1
 43 44  1  0
 45 44  1  1
 45 46  1  0
 46 47  1  0
 47 48  2  0
 47 49  1  0
 50 49  1  6
 50 51  1  0
 51 52  1  0
 52 53  2  0
 53 54  1  0
 54 55  2  0
 54 56  1  0
 57 56  1  6
 57 58  1  0
 58 29  1  0
 58 59  1  6
 57 60  1  0
 60 27  1  0
 60 61  1  1
 50 62  1  0
 62 45  1  0
 43 63  1  0
 63 38  1  0
 23 64  2  0
 64 65  1  0
 65 21  1  0
 18 66  1  0
 66 12  1  0
  4 67  1  0
 67 68  1  0
M  END
> <Smiles>
C#CC[C@H](/C=C/C(C)=C/[C@@H](O)[C@H]1C[C@@H](OC)C[C@@](O)(Cc2nc(/C=C(\C)[C@@H]3O[C@@H]4C/C=C/c5nc(co5)[C@H]5C[C@H](O)C[C@@H](C[C@H]6CC(=C)C[C@H](C/C=C\C(=O)O[C@@H]([C@H]4C)[C@H]3C)O6)O5)co2)O1)OC

> <ID>
CHEMBL217667

> <standard_value>
27.4

> <IC50_uM>
0.0274

> <Activity>
Yes

> <pIC50>
7.562249437

> <BCI>
1

$$$$

  SciTegic03012415362D

 51 59  0  0  1  0            999 V2000
    2.5981   -1.5000    0.0000 C   0  0
    1.2990   -0.7500    0.0000 C   0  0  2  0  0  0
    1.2990    0.7500    0.0000 C   0  0
    0.0000    1.5000    0.0000 C   0  0  2  0  0  0
    0.5753    2.9306    0.0000 N   0  0
   -0.5394    3.9343    0.0000 C   0  0  2  0  0  0
   -0.3797    5.4240    0.0000 C   0  0
    0.9922    6.0324    0.0000 C   0  0  3  0  0  0
    2.2042    5.1486    0.0000 O   0  0
    1.1522    7.5247    0.0000 C   0  0
    2.5225    8.1349    0.0000 C   0  0
    2.6794    9.6267    0.0000 C   0  0
    1.4659   10.5084    0.0000 C   0  0
    0.0955    9.8983    0.0000 C   0  0
   -0.0613    8.4065    0.0000 C   0  0
   -1.8384    3.1842    0.0000 C   0  0
   -1.5266    1.7170    0.0000 S   0  0
   -1.2990    0.7500    0.0000 C   0  0  3  0  0  0
   -1.2991    2.2500    0.0000 O   0  0
   -2.5981    1.5000    0.0000 O   0  0
   -3.8971    0.7500    0.0000 C   0  0  2  0  0  0
   -5.1962    1.5000    0.0000 C   0  0
   -6.4952    0.7500    0.0000 C   0  0  1  0  0  0
   -5.1954   -0.0004    0.0000 C   0  0
   -3.8959    0.7487    0.0000 O   0  0
   -6.4952   -0.7500    0.0000 C   0  0  1  0  0  0
   -7.7942   -1.5001    0.0000 C   0  0
   -9.0933   -0.7501    0.0000 C   0  0
   -9.0933    0.7499    0.0000 C   0  0  2  0  0  0
   -7.7943    1.4999    0.0000 C   0  0  2  0  0  0
   -7.7943    3.0000    0.0000 C   0  0
   -9.0933    3.7499    0.0000 C   0  0
  -10.3923    2.9999    0.0000 C   0  0  2  0  0  0
  -10.5474    4.4919    0.0000 C   0  0
  -11.8073    3.4634    0.0000 C   0  0  1  0  0  0
  -12.2694    4.8913    0.0000 C   0  0
  -11.4786    6.1452    0.0000 C   0  0
  -12.4521    7.2863    0.0000 C   0  0
  -12.1012    8.7447    0.0000 O   0  0
  -13.8383    6.7130    0.0000 O   0  0
  -13.7214    5.2176    0.0000 C   0  0
  -12.6890    2.2499    0.0000 C   0  0
  -11.8073    1.0364    0.0000 C   0  0
  -10.3923    1.4999    0.0000 C   0  0  2  0  0  0
  -10.4964    0.0054    0.0000 C   0  0
  -11.8434   -0.6546    0.0000 O   0  0
   -5.1961   -1.5000    0.0000 C   0  0
   -3.8971   -0.7500    0.0000 C   0  0  1  0  0  0
   -2.5981   -1.5000    0.0000 O   0  0
   -1.2990   -0.7500    0.0000 C   0  0  2  0  0  0
    0.0000   -1.5000    0.0000 O   0  0
  2  1  1  1
  2  3  1  0
  4  3  1  1
  4  5  1  0
  5  6  1  0
  6  7  1  1
  7  8  1  0
  8  9  1  4
  8 10  1  0
 10 11  2  0
 11 12  1  0
 12 13  2  0
 13 14  1  0
 14 15  2  0
 15 10  1  0
  6 16  1  0
 16 17  1  0
 17  4  1  0
  4 18  1  0
 18 19  1  4
 18 20  1  0
 21 20  1  1
 21 22  1  0
 22 23  1  0
 23 24  1  6
 24 25  1  0
 23 26  1  0
 26 27  1  6
 27 28  1  0
 29 28  1  1
 29 30  1  0
 30 23  1  0
 30 31  1  6
 31 32  1  0
 32 33  1  0
 33 34  1  6
 33 35  1  0
 35 36  1  6
 36 37  2  0
 37 38  1  0
 38 39  2  0
 38 40  1  0
 40 41  1  0
 41 36  1  0
 35 42  1  0
 42 43  1  0
 43 44  1  0
 44 29  1  0
 44 33  1  0
 44 45  1  6
 45 46  1  0
 26 47  1  0
 48 47  1  6
 48 21  1  0
 48 49  1  0
 50 49  1  1
 50 18  1  0
 50 51  1  0
 51  2  1  0
M  END
> <Smiles>
C[C@@H]1C[C@@]2(N[C@H](CC(O)c3ccccc3)CS2)C2(O)O[C@@H]3C[C@@]4(CO)[C@@H](CC[C@@H]5[C@@H]4CC[C@]4(C)[C@@H](C6=CC(=O)OC6)CC[C@]54CO)C[C@H]3O[C@@H]2O1

> <ID>
CHEMBL176316

> <standard_value>
28

> <IC50_uM>
0.028

> <Activity>
Yes

> <pIC50>
7.552841969

> <BCI>
1

$$$$

  SciTegic03012415362D

 70 76  0  0  1  0            999 V2000
    4.6294   11.8520    0.0000 C   0  0
    5.1259   10.4366    0.0000 C   0  0
    6.6353   10.1605    0.0000 C   0  0
    7.1201    8.7121    0.0000 C   0  0  2  0  0  0
    8.6293    8.4137    0.0000 C   0  0
    9.6140    6.8449    0.0000 C   0  0  2  0  0  0
   11.0535    7.3342    0.0000 C   0  0
   12.2125    6.3052    0.0000 C   0  0  1  0  0  0
   13.6370    6.7748    0.0000 O   0  0
   11.8963    4.8050    0.0000 C   0  0
   10.4389    4.3248    0.0000 C   0  0  1  0  0  0
    9.2977    5.3448    0.0000 O   0  0
   10.4803    2.7994    0.0000 C   0  0
   11.2882    1.5004    0.0000 C   0  0
   10.2904    0.3367    0.0000 O   0  0
    8.8819    0.9206    0.0000 C   0  0
    8.9971    2.4447    0.0000 N   0  0
    7.5695    0.1082    0.0000 C   0  0
    6.2247    0.8391    0.0000 C   0  0
    4.9257    0.0312    0.0000 C   0  0
    3.5764    0.7532    0.0000 C   0  0  1  0  0  0
    2.2863   -0.0593    0.0000 O   0  0
    0.9327    0.6761    0.0000 C   0  0  1  0  0  0
   -0.3469   -0.1077    0.0000 C   0  0
   -1.6647    0.6088    0.0000 C   0  0
   -0.3089   -1.6080    0.0000 C   0  0
   -1.5887   -2.3919    0.0000 C   0  0
   -2.9570   -1.8090    0.0000 C   0  0
   -3.9291   -2.9513    0.0000 O   0  0
   -3.1430   -4.2289    0.0000 C   0  0
   -3.7110   -5.6153    0.0000 C   0  0
   -5.1980   -5.8179    0.0000 C   0  0  2  0  0  0
   -5.7667   -7.2073    0.0000 O   0  0
   -4.8493   -8.3941    0.0000 C   0  0
   -6.6588   -6.0532    0.0000 C   0  0
   -7.5771   -4.8672    0.0000 C   0  0  2  0  0  0
   -9.0639   -5.0726    0.0000 O   0  0
   -9.6298   -6.4617    0.0000 C   0  0
   -7.0092   -3.4788    0.0000 C   0  0
   -5.5229   -3.2766    0.0000 C   0  0  2  0  0  0
   -4.9527   -1.8882    0.0000 C   0  0  2  0  0  0
   -3.4661   -1.6884    0.0000 O   0  0
   -5.8692   -0.6997    0.0000 C   0  0
   -5.2990    0.6886    0.0000 C   0  0
   -3.8124    0.8884    0.0000 C   0  0
   -6.2155    1.8771    0.0000 C   0  0
   -5.6454    3.2654    0.0000 C   0  0
   -6.5619    4.4539    0.0000 C   0  0  1  0  0  0
   -5.9917    5.8422    0.0000 C   0  0
   -6.9082    7.0307    0.0000 C   0  0
   -6.3380    8.4190    0.0000 C   0  0
   -7.2540    9.6069    0.0000 Br  0  0
   -8.0497    4.2570    0.0000 O   0  0
   -8.9644    5.4459    0.0000 C   0  0
   -4.6045   -4.4626    0.0000 O   0  0
   -1.6851   -3.8761    0.0000 N   0  0
    0.8913    2.2015    0.0000 C   0  0  2  0  0  0
   -0.4296    2.9122    0.0000 C   0  0
    2.1903    3.0094    0.0000 C   0  0  1  0  0  0
    2.1490    4.5348    0.0000 O   0  0
    0.8042    5.2657    0.0000 C   0  0
   -0.4570    4.4538    0.0000 O   0  0
    0.6958    6.7916    0.0000 C   0  0
    1.9639    7.6490    0.0000 C   0  0
    3.3494    6.9759    0.0000 C   0  0
    4.6040    7.8290    0.0000 C   0  0  1  0  0  0
    4.1193    9.2774    0.0000 C   0  0
    6.1579    7.5302    0.0000 O   0  0
    3.5396    2.2874    0.0000 C   0  0  1  0  0  0
    4.8170    3.0737    0.0000 C   0  0
  1  2  2  0
  2  3  1  0
  4  3  1  6
  4  5  1  0
  6  5  1  6
  6  7  1  0
  7  8  1  0
  8  9  1  1
  8 10  1  0
 11 10  1  6
 11 12  1  0
 12  6  1  0
 11 13  1  0
 13 14  2  0
 14 15  1  0
 15 16  1  0
 16 17  2  0
 17 13  1  0
 16 18  1  0
 18 19  2  0
 19 20  1  0
 21 20  1  1
 21 22  1  0
 22 23  1  0
 23 24  1  1
 24 25  1  0
 24 26  2  0
 26 27  1  0
 27 28  2  0
 28 29  1  0
 29 30  1  0
 30 31  1  0
 32 31  1  6
 32 33  1  0
 33 34  1  0
 32 35  1  0
 35 36  1  0
 36 37  1  6
 37 38  1  0
 36 39  1  0
 40 39  1  6
 40 41  1  0
 41 42  1  1
 41 43  1  0
 43 44  2  0
 44 45  1  0
 44 46  1  0
 46 47  2  0
 48 47  1  6
 48 49  1  0
 49 50  1  0
 50 51  2  0
 51 52  1  0
 48 53  1  0
 53 54  1  0
 40 55  1  0
 55 32  1  0
 30 56  2  0
 56 27  1  0
 23 57  1  0
 57 58  1  6
 57 59  1  0
 59 60  1  1
 60 61  1  0
 61 62  2  0
 61 63  1  0
 63 64  2  0
 64 65  1  0
 66 65  1  1
 66 67  1  0
 67  2  1  0
 66 68  1  0
 68  4  1  0
 59 69  1  0
 69 21  1  0
 69 70  1  1
M  END
> <Smiles>
C=C1C[C@@H]2C[C@@H]3C[C@@H](O)C[C@@H](O3)c3coc(n3)/C=C/C[C@H]3O[C@@H](/C(C)=C/c4coc(C[C@]5(OC)C[C@H](OC)C[C@H]([C@H](O)/C=C(C)/C=C/[C@@H](C/C=C/Br)OC)O5)n4)[C@H](C)[C@@H](OC(=O)/C=C\C[C@@H](C1)O2)[C@H
]3C

> <ID>
CHEMBL265005

> <standard_value>
29.2

> <IC50_uM>
0.0292

> <Activity>
Yes

> <pIC50>
7.534617149

> <BCI>
1

$$$$

  SciTegic03012415362D

 27 30  0  0  0  0            999 V2000
    3.8983   -0.7459    0.0000 C   0  0
    2.6003   -1.4977    0.0000 O   0  0
    1.2990   -0.7500    0.0000 C   0  0
    1.2990    0.7500    0.0000 C   0  0
    0.0000    1.5000    0.0000 C   0  0
   -1.2990    0.7500    0.0000 N   0  0
   -1.2990   -0.7500    0.0000 C   0  0
    0.0000   -1.5000    0.0000 C   0  0
    0.0000   -3.0000    0.0000 C   0  0
    1.2990   -3.7500    0.0000 O   0  0
   -1.2990   -3.7500    0.0000 C   0  0
   -1.2990   -5.2500    0.0000 C   0  0
    0.0007   -6.0004    0.0000 C   0  0
    1.2986   -5.2484    0.0000 C   0  0
    2.5988   -5.9963    0.0000 C   0  0
    2.6012   -7.4963    0.0000 C   0  0
    1.3034   -8.2484    0.0000 C   0  0
    0.0031   -7.5004    0.0000 C   0  0
   -1.2938   -8.2556    0.0000 N   0  3
   -1.2893   -9.7556    0.0000 O   0  0
   -2.5954   -7.5100    0.0000 O   0  5
   -2.5981   -6.0000    0.0000 C   0  0
   -3.8971   -5.2500    0.0000 C   0  0
   -3.8971   -3.7500    0.0000 N   0  0
   -2.5981   -3.0000    0.0000 C   0  0
   -2.5981   -1.5000    0.0000 C   0  0
   -3.8971   -0.7500    0.0000 O   0  0
  1  2  1  0
  2  3  1  0
  3  4  2  0
  4  5  1  0
  5  6  2  0
  6  7  1  0
  7  8  2  0
  8  3  1  0
  8  9  1  0
  9 10  2  0
  9 11  1  0
 11 12  2  0
 12 13  1  0
 13 14  2  0
 14 15  1  0
 15 16  2  0
 16 17  1  0
 17 18  2  0
 18 13  1  0
 18 19  1  0
 19 20  2  0
 19 21  1  0
 12 22  1  0
 22 23  2  0
 23 24  1  0
 24 25  2  0
 25 11  1  0
 25 26  1  0
 26  7  1  0
 26 27  2  0
M  CHG  2  19   1  21  -1
M  END
> <Smiles>
COc1ccnc2c1C(=O)c1c(-c3ccccc3[N+](=O)[O-])ccnc1C2=O

> <ID>
CHEMBL111490

> <standard_value>
30

> <IC50_uM>
0.03

> <Activity>
Yes

> <pIC50>
7.522878745

> <BCI>
1

$$$$

  SciTegic03012415362D

 27 30  0  0  1  0            999 V2000
    4.1697    0.3850    0.0000 C   0  0
    3.1510   -0.7161    0.0000 O   0  0
    1.6852   -0.3846    0.0000 C   0  0  1  0  0  0
    1.3514    1.0778    0.0000 N   0  0
    0.0000    1.7286    0.0000 C   0  0
    0.1115    3.2255    0.0000 C   0  0
   -1.1278    4.0705    0.0000 C   0  0
   -2.4793    3.4196    0.0000 C   0  0
   -2.5914    1.9238    0.0000 C   0  0
   -1.3515    1.0777    0.0000 C   0  0
   -1.6852   -0.3847    0.0000 C   0  0
   -3.1476   -0.7184    0.0000 O   0  0
   -0.7500   -1.5574    0.0000 N   0  0
   -1.2135   -2.9844    0.0000 C   0  0
    0.0000   -3.8661    0.0000 C   0  0
    0.0031   -5.3643    0.0000 C   0  0
    1.3040   -6.1128    0.0000 C   0  0
    1.3071   -7.6137    0.0000 C   0  0
    0.0094   -8.3660    0.0000 O   0  0
    2.6079   -8.3622    0.0000 N   0  0
    2.6111   -9.8622    0.0000 C   0  0
    3.9056   -7.6099    0.0000 C   0  0
    1.2135   -2.9844    0.0000 C   0  0
    0.7500   -1.5574    0.0000 C   0  0  1  0  0  0
   -3.5155    4.5031    0.0000 O   0  0
   -2.8047    5.8240    0.0000 C   0  0
   -1.3288    5.5561    0.0000 O   0  0
  1  2  1  0
  3  2  1  6
  3  4  1  0
  4  5  1  0
  5  6  2  0
  6  7  1  0
  7  8  2  0
  8  9  1  0
  9 10  2  0
 10  5  1  0
 10 11  1  0
 11 12  2  0
 11 13  1  0
 13 14  1  0
 14 15  2  0
 15 16  1  0
 16 17  2  0
 17 18  1  0
 18 19  2  0
 18 20  1  0
 20 21  1  0
 20 22  1  0
 15 23  1  0
 24 23  1  6
 24  3  1  0
 24 13  1  0
  8 25  1  0
 25 26  1  0
 26 27  1  0
 27  7  1  0
M  END
> <Smiles>
CO[C@H]1Nc2cc3c(cc2C(=O)N2C=C(/C=C/C(=O)N(C)C)C[C@@H]12)OCO3

> <ID>
CHEMBL125393

> <standard_value>
30

> <IC50_uM>
0.03

> <Activity>
Yes

> <pIC50>
7.522878745

> <BCI>
1

$$$$

  SciTegic03012415362D

 25 28  0  0  1  0            999 V2000
    2.5981   -1.5000    0.0000 Cl  0  0
    1.2990   -0.7500    0.0000 C   0  0
    1.2990    0.7500    0.0000 C   0  0
    0.0000    1.5000    0.0000 C   0  0
   -1.2990    0.7500    0.0000 C   0  0
   -1.2990   -0.7500    0.0000 C   0  0
   -2.5972   -1.5031    0.0000 C   0  0
   -2.5951   -3.0039    0.0000 C   0  0
   -3.8056   -3.8680    0.0000 N   0  0
   -3.3371   -5.2929    0.0000 C   0  0  2  0  0  0
   -4.2150   -6.5101    0.0000 C   0  0
   -3.7057   -7.9157    0.0000 C   0  0
   -4.6722   -9.0628    0.0000 C   0  0
   -6.1489   -8.7994    0.0000 C   0  0
   -6.6591   -7.3888    0.0000 C   0  0
   -5.6926   -6.2417    0.0000 C   0  0
   -1.8371   -5.2877    0.0000 C   0  0  2  0  0  0
   -0.9508   -6.4988    0.0000 C   0  0
    0.5434   -6.4487    0.0000 C   0  0
    1.3357   -7.7224    0.0000 C   0  0
    0.6288   -9.0454    0.0000 C   0  0
   -0.8704   -9.0947    0.0000 C   0  0
   -1.6627   -7.8210    0.0000 C   0  0
   -1.3786   -3.8595    0.0000 N   0  0
    0.0000   -1.5000    0.0000 C   0  0
  1  2  1  0
  2  3  2  0
  3  4  1  0
  4  5  2  0
  5  6  1  0
  6  7  1  0
  7  8  1  0
  8  9  2  0
  9 10  1  0
 10 11  1  1
 11 12  2  0
 12 13  1  0
 13 14  2  0
 14 15  1  0
 15 16  2  0
 16 11  1  0
 10 17  1  0
 17 18  1  1
 18 19  2  0
 19 20  1  0
 20 21  2  0
 21 22  1  0
 22 23  2  0
 23 18  1  0
 17 24  1  0
 24  8  1  0
  6 25  2  0
 25  2  1  0
M  END
> <Smiles>
Clc1cccc(CC2=N[C@H](c3ccccc3)[C@H](c3ccccc3)N2)c1

> <ID>
CHEMBL360049

> <standard_value>
30

> <IC50_uM>
0.03

> <Activity>
Yes

> <pIC50>
7.522878745

> <BCI>
1

$$$$

  SciTegic03012415362D

 26 29  0  0  1  0            999 V2000
    2.5981   -1.5000    0.0000 F   0  0
    1.2990   -0.7500    0.0000 C   0  0
    1.2990    0.7500    0.0000 C   0  0
    0.0000    1.5000    0.0000 C   0  0
   -1.2990    0.7500    0.0000 C   0  0
   -2.6003    1.4977    0.0000 C   0  0
   -3.8990    0.7455    0.0000 C   0  0
   -5.2526    1.3618    0.0000 N   0  0
   -6.2524    0.2436    0.0000 C   0  0  2  0  0  0
   -7.7454    0.3952    0.0000 C   0  0
   -8.7081   -0.7486    0.0000 C   0  0
  -10.1847   -0.4852    0.0000 C   0  0
  -10.6949    0.9254    0.0000 C   0  0
   -9.7284    2.0725    0.0000 C   0  0
   -8.2517    1.8090    0.0000 C   0  0
   -5.4979   -1.0529    0.0000 C   0  0  2  0  0  0
   -6.1035   -2.4260    0.0000 C   0  0
   -5.3131   -3.6950    0.0000 C   0  0
   -6.0199   -5.0180    0.0000 C   0  0
   -7.5191   -5.0673    0.0000 C   0  0
   -8.3114   -3.7936    0.0000 C   0  0
   -7.6046   -2.4706    0.0000 C   0  0
   -4.0317   -0.7359    0.0000 N   0  0
   -1.2990   -0.7500    0.0000 C   0  0
    0.0000   -1.5000    0.0000 C   0  0
    0.0000   -3.0000    0.0000 F   0  0
  1  2  1  0
  2  3  2  0
  3  4  1  0
  4  5  2  0
  5  6  1  0
  6  7  1  0
  7  8  2  0
  8  9  1  0
  9 10  1  1
 10 11  2  0
 11 12  1  0
 12 13  2  0
 13 14  1  0
 14 15  2  0
 15 10  1  0
  9 16  1  0
 16 17  1  1
 17 18  2  0
 18 19  1  0
 19 20  2  0
 20 21  1  0
 21 22  2  0
 22 17  1  0
 16 23  1  0
 23  7  1  0
  5 24  1  0
 24 25  2  0
 25  2  1  0
 25 26  1  0
M  END
> <Smiles>
Fc1ccc(CC2=N[C@H](c3ccccc3)[C@H](c3ccccc3)N2)cc1F

> <ID>
CHEMBL361979

> <standard_value>
30

> <IC50_uM>
0.03

> <Activity>
Yes

> <pIC50>
7.522878745

> <BCI>
1

$$$$

  SciTegic03012415362D

 26 29  0  0  1  0            999 V2000
    7.1851   -3.6075    0.0000 C   0  0
    6.3037   -4.8211    0.0000 C   0  0  1  0  0  0
    4.8111   -4.6641    0.0000 C   0  0
    4.2010   -3.2956    0.0000 C   0  0
    2.7343   -2.9815    0.0000 N   0  0
    2.5987   -1.5004    0.0000 C   0  0  2  0  0  0
    1.2990   -0.7500    0.0000 C   0  0
    1.2990    0.7500    0.0000 C   0  0
    0.0000    1.5000    0.0000 C   0  0
   -1.2990    0.7500    0.0000 C   0  0
   -1.2990   -0.7500    0.0000 C   0  0
    0.0000   -1.5000    0.0000 C   0  0
    3.9511   -0.8815    0.0000 C   0  0  2  0  0  0
    4.2567    0.5878    0.0000 C   0  0
    3.2235    1.6679    0.0000 C   0  0
    3.6446    3.1076    0.0000 C   0  0
    5.1019    3.4627    0.0000 C   0  0
    6.1382    2.3782    0.0000 C   0  0
    5.7171    0.9385    0.0000 C   0  0
    4.9531   -1.9978    0.0000 N   0  0
    6.9148   -6.1919    0.0000 C   0  0
    6.0354   -7.4072    0.0000 C   0  0
    6.6481   -8.7764    0.0000 C   0  0
    8.1401   -8.9304    0.0000 C   0  0
    9.0195   -7.7152    0.0000 C   0  0
    8.4069   -6.3461    0.0000 C   0  0
  2  1  1  6
  2  3  1  0
  3  4  1  0
  4  5  2  0
  5  6  1  0
  6  7  1  6
  7  8  2  0
  8  9  1  0
  9 10  2  0
 10 11  1  0
 11 12  2  0
 12  7  1  0
  6 13  1  0
 13 14  1  6
 14 15  2  0
 15 16  1  0
 16 17  2  0
 17 18  1  0
 18 19  2  0
 19 14  1  0
 13 20  1  0
 20  4  1  0
  2 21  1  0
 21 22  2  0
 22 23  1  0
 23 24  2  0
 24 25  1  0
 25 26  2  0
 26 21  1  0
M  END
> <Smiles>
C[C@@H](CC1=N[C@H](c2ccccc2)[C@H](c2ccccc2)N1)c1ccccc1

> <ID>
CHEMBL180296

> <standard_value>
30

> <IC50_uM>
0.03

> <Activity>
Yes

> <pIC50>
7.522878745

> <BCI>
1

$$$$

  SciTegic03012415362D

 41 48  0  0  1  0            999 V2000
    2.5981   -1.5000    0.0000 C   0  0
    1.2990   -0.7500    0.0000 C   0  0  2  0  0  0
    1.2990    0.7500    0.0000 C   0  0
    0.0000    1.5000    0.0000 C   0  0  2  0  0  0
    0.5753    2.9306    0.0000 N   0  0
   -0.5394    3.9343    0.0000 C   0  0
   -1.8384    3.1842    0.0000 C   0  0
   -1.5266    1.7170    0.0000 S   0  0
   -1.2990    0.7500    0.0000 C   0  0  2  0  0  0
   -1.2991    2.2500    0.0000 O   0  0
   -2.5981    1.5000    0.0000 O   0  0
   -3.8971    0.7500    0.0000 C   0  0  2  0  0  0
   -5.1962    1.5000    0.0000 C   0  0
   -6.4952    0.7500    0.0000 C   0  0  1  0  0  0
   -5.1954   -0.0004    0.0000 C   0  0
   -3.8959    0.7487    0.0000 O   0  0
   -6.4952   -0.7500    0.0000 C   0  0  1  0  0  0
   -7.7942   -1.5001    0.0000 C   0  0
   -9.0933   -0.7501    0.0000 C   0  0
   -9.0933    0.7499    0.0000 C   0  0  2  0  0  0
   -7.7943    1.4999    0.0000 C   0  0  2  0  0  0
   -7.7943    3.0000    0.0000 C   0  0
   -9.0933    3.7499    0.0000 C   0  0
  -10.3923    2.9999    0.0000 C   0  0  2  0  0  0
  -10.5474    4.4919    0.0000 C   0  0
  -11.8073    3.4634    0.0000 C   0  0  1  0  0  0
  -12.2694    4.8913    0.0000 C   0  0
  -11.4786    6.1452    0.0000 C   0  0
  -12.4521    7.2863    0.0000 C   0  0
  -12.1012    8.7447    0.0000 O   0  0
  -13.8383    6.7130    0.0000 O   0  0
  -13.7214    5.2176    0.0000 C   0  0
  -12.6890    2.2499    0.0000 C   0  0
  -11.8073    1.0364    0.0000 C   0  0
  -10.3923    1.4999    0.0000 C   0  0  2  0  0  0
  -10.5473    0.0080    0.0000 O   0  0
   -5.1961   -1.5000    0.0000 C   0  0
   -3.8971   -0.7500    0.0000 C   0  0  1  0  0  0
   -2.5981   -1.5000    0.0000 O   0  0
   -1.2990   -0.7500    0.0000 C   0  0  2  0  0  0
    0.0000   -1.5000    0.0000 O   0  0
  2  1  1  1
  2  3  1  0
  4  3  1  1
  4  5  1  0
  5  6  1  0
  6  7  1  0
  7  8  1  0
  8  4  1  0
  4  9  1  0
  9 10  1  6
  9 11  1  0
 12 11  1  1
 12 13  1  0
 13 14  1  0
 14 15  1  6
 15 16  2  0
 14 17  1  0
 17 18  1  6
 18 19  1  0
 20 19  1  1
 20 21  1  0
 21 14  1  0
 21 22  1  6
 22 23  1  0
 23 24  1  0
 24 25  1  6
 24 26  1  0
 26 27  1  6
 27 28  2  0
 28 29  1  0
 29 30  2  0
 29 31  1  0
 31 32  1  0
 32 27  1  0
 26 33  1  0
 33 34  1  0
 34 35  1  0
 35 20  1  0
 35 24  1  0
 35 36  1  6
 17 37  1  0
 38 37  1  6
 38 12  1  0
 38 39  1  0
 40 39  1  1
 40  9  1  0
 40 41  1  0
 41  2  1  0
M  END
> <Smiles>
C[C@@H]1C[C@@]2(NCCS2)[C@]2(O)O[C@@H]3C[C@@]4(C=O)[C@@H](CC[C@@H]5[C@@H]4CC[C@]4(C)[C@@H](C6=CC(=O)OC6)CC[C@]54O)C[C@H]3O[C@@H]2O1

> <ID>
CHEMBL360322

> <standard_value>
32

> <IC50_uM>
0.032

> <Activity>
Yes

> <pIC50>
7.494850022

> <BCI>
1

$$$$

  SciTegic03012415362D

 43 50  0  0  1  0            999 V2000
    2.5981   -1.5000    0.0000 C   0  0
    1.2990   -0.7500    0.0000 C   0  0  2  0  0  0
    1.2990    0.7500    0.0000 C   0  0
    0.0000    1.5000    0.0000 C   0  0  2  0  0  0
    0.5753    2.9306    0.0000 N   0  0
   -0.5394    3.9343    0.0000 C   0  0
   -0.3826    5.4260    0.0000 N   0  0
   -1.8384    3.1842    0.0000 C   0  0
   -1.5266    1.7170    0.0000 S   0  0
   -1.2990    0.7500    0.0000 C   0  0  3  0  0  0
   -1.2991    2.2500    0.0000 O   0  0
   -2.5981    1.5000    0.0000 O   0  0
   -3.8971    0.7500    0.0000 C   0  0  2  0  0  0
   -5.1962    1.5000    0.0000 C   0  0
   -6.4952    0.7500    0.0000 C   0  0  1  0  0  0
   -5.1954   -0.0004    0.0000 C   0  0
   -3.8959    0.7487    0.0000 O   0  0
   -6.4952   -0.7500    0.0000 C   0  0  1  0  0  0
   -7.7942   -1.5001    0.0000 C   0  0
   -9.0933   -0.7501    0.0000 C   0  0
   -9.0933    0.7499    0.0000 C   0  0  2  0  0  0
   -7.7943    1.4999    0.0000 C   0  0  2  0  0  0
   -7.7943    3.0000    0.0000 C   0  0
   -9.0933    3.7499    0.0000 C   0  0
  -10.3923    2.9999    0.0000 C   0  0  2  0  0  0
  -10.5474    4.4919    0.0000 C   0  0
  -11.8073    3.4634    0.0000 C   0  0  1  0  0  0
  -12.2694    4.8913    0.0000 C   0  0
  -11.4786    6.1452    0.0000 C   0  0
  -12.4521    7.2863    0.0000 C   0  0
  -12.1012    8.7447    0.0000 O   0  0
  -13.8383    6.7130    0.0000 O   0  0
  -13.7214    5.2176    0.0000 C   0  0
  -12.6890    2.2499    0.0000 C   0  0
  -11.8073    1.0364    0.0000 C   0  0
  -10.3923    1.4999    0.0000 C   0  0  2  0  0  0
  -10.4964    0.0054    0.0000 C   0  0
  -11.8434   -0.6546    0.0000 O   0  0
   -5.1961   -1.5000    0.0000 C   0  0
   -3.8971   -0.7500    0.0000 C   0  0  1  0  0  0
   -2.5981   -1.5000    0.0000 O   0  0
   -1.2990   -0.7500    0.0000 C   0  0  2  0  0  0
    0.0000   -1.5000    0.0000 O   0  0
  2  1  1  1
  2  3  1  0
  4  3  1  1
  4  5  1  0
  5  6  2  0
  6  7  1  0
  6  8  1  0
  8  9  1  0
  9  4  1  0
  4 10  1  0
 10 11  1  4
 10 12  1  0
 13 12  1  1
 13 14  1  0
 14 15  1  0
 15 16  1  6
 16 17  2  0
 15 18  1  0
 18 19  1  6
 19 20  1  0
 21 20  1  1
 21 22  1  0
 22 15  1  0
 22 23  1  6
 23 24  1  0
 24 25  1  0
 25 26  1  6
 25 27  1  0
 27 28  1  6
 28 29  2  0
 29 30  1  0
 30 31  2  0
 30 32  1  0
 32 33  1  0
 33 28  1  0
 27 34  1  0
 34 35  1  0
 35 36  1  0
 36 21  1  0
 36 25  1  0
 36 37  1  6
 37 38  1  0
 18 39  1  0
 40 39  1  6
 40 13  1  0
 40 41  1  0
 42 41  1  1
 42 10  1  0
 42 43  1  0
 43  2  1  0
M  END
> <Smiles>
C[C@@H]1C[C@@]2(N=C(N)CS2)C2(O)O[C@@H]3C[C@@]4(C=O)[C@@H](CC[C@@H]5[C@@H]4CC[C@]4(C)[C@@H](C6=CC(=O)OC6)CC[C@]54CO)C[C@H]3O[C@@H]2O1

> <ID>
CHEMBL369587

> <standard_value>
34

> <IC50_uM>
0.034

> <Activity>
Yes

> <pIC50>
7.468521083

> <BCI>
1

$$$$

  SciTegic03012415362D

 51 59  0  0  1  0            999 V2000
    2.5981   -1.5000    0.0000 C   0  0
    1.2990   -0.7500    0.0000 C   0  0  2  0  0  0
    1.2990    0.7500    0.0000 C   0  0
    0.0000    1.5000    0.0000 C   0  0  2  0  0  0
    0.5753    2.9306    0.0000 N   0  0
   -0.5394    3.9343    0.0000 C   0  0  2  0  0  0
   -0.3797    5.4240    0.0000 C   0  0
    0.9922    6.0324    0.0000 C   0  0
    2.2042    5.1486    0.0000 O   0  0
    1.1522    7.5247    0.0000 C   0  0
    2.5225    8.1349    0.0000 C   0  0
    2.6794    9.6267    0.0000 C   0  0
    1.4659   10.5084    0.0000 C   0  0
    0.0955    9.8983    0.0000 C   0  0
   -0.0613    8.4065    0.0000 C   0  0
   -1.8384    3.1842    0.0000 C   0  0
   -1.5266    1.7170    0.0000 S   0  0
   -1.2990    0.7500    0.0000 C   0  0  3  0  0  0
   -1.2991    2.2500    0.0000 O   0  0
   -2.5981    1.5000    0.0000 O   0  0
   -3.8971    0.7500    0.0000 C   0  0  2  0  0  0
   -5.1962    1.5000    0.0000 C   0  0
   -6.4952    0.7500    0.0000 C   0  0  1  0  0  0
   -5.1954   -0.0004    0.0000 C   0  0
   -3.8959    0.7487    0.0000 O   0  0
   -6.4952   -0.7500    0.0000 C   0  0  1  0  0  0
   -7.7942   -1.5001    0.0000 C   0  0
   -9.0933   -0.7501    0.0000 C   0  0
   -9.0933    0.7499    0.0000 C   0  0  2  0  0  0
   -7.7943    1.4999    0.0000 C   0  0  2  0  0  0
   -7.7943    3.0000    0.0000 C   0  0
   -9.0933    3.7499    0.0000 C   0  0
  -10.3923    2.9999    0.0000 C   0  0  2  0  0  0
  -10.5474    4.4919    0.0000 C   0  0
  -11.8073    3.4634    0.0000 C   0  0  1  0  0  0
  -12.2694    4.8913    0.0000 C   0  0
  -11.4786    6.1452    0.0000 C   0  0
  -12.4521    7.2863    0.0000 C   0  0
  -12.1012    8.7447    0.0000 O   0  0
  -13.8383    6.7130    0.0000 O   0  0
  -13.7214    5.2176    0.0000 C   0  0
  -12.6890    2.2499    0.0000 C   0  0
  -11.8073    1.0364    0.0000 C   0  0
  -10.3923    1.4999    0.0000 C   0  0  2  0  0  0
  -10.4964    0.0054    0.0000 C   0  0
  -11.8434   -0.6546    0.0000 O   0  0
   -5.1961   -1.5000    0.0000 C   0  0
   -3.8971   -0.7500    0.0000 C   0  0  1  0  0  0
   -2.5981   -1.5000    0.0000 O   0  0
   -1.2990   -0.7500    0.0000 C   0  0  2  0  0  0
    0.0000   -1.5000    0.0000 O   0  0
  2  1  1  1
  2  3  1  0
  4  3  1  1
  4  5  1  0
  5  6  1  0
  6  7  1  1
  7  8  1  0
  8  9  2  0
  8 10  1  0
 10 11  2  0
 11 12  1  0
 12 13  2  0
 13 14  1  0
 14 15  2  0
 15 10  1  0
  6 16  1  0
 16 17  1  0
 17  4  1  0
  4 18  1  0
 18 19  1  4
 18 20  1  0
 21 20  1  1
 21 22  1  0
 22 23  1  0
 23 24  1  6
 24 25  1  0
 23 26  1  0
 26 27  1  6
 27 28  1  0
 29 28  1  1
 29 30  1  0
 30 23  1  0
 30 31  1  6
 31 32  1  0
 32 33  1  0
 33 34  1  6
 33 35  1  0
 35 36  1  6
 36 37  2  0
 37 38  1  0
 38 39  2  0
 38 40  1  0
 40 41  1  0
 41 36  1  0
 35 42  1  0
 42 43  1  0
 43 44  1  0
 44 29  1  0
 44 33  1  0
 44 45  1  6
 45 46  1  0
 26 47  1  0
 48 47  1  6
 48 21  1  0
 48 49  1  0
 50 49  1  1
 50 18  1  0
 50 51  1  0
 51  2  1  0
M  END
> <Smiles>
C[C@@H]1C[C@@]2(N[C@H](CC(=O)c3ccccc3)CS2)C2(O)O[C@@H]3C[C@@]4(CO)[C@@H](CC[C@@H]5[C@@H]4CC[C@]4(C)[C@@H](C6=CC(=O)OC6)CC[C@]54CO)C[C@H]3O[C@@H]2O1

> <ID>
CHEMBL175946

> <standard_value>
34

> <IC50_uM>
0.034

> <Activity>
Yes

> <pIC50>
7.468521083

> <BCI>
1

$$$$

  SciTegic03012415362D

 25 27  0  0  0  0            999 V2000
    2.5951   -3.0031    0.0000 C   0  0
    2.5973   -1.5031    0.0000 O   0  0
    1.2990   -0.7500    0.0000 C   0  0
    1.2990    0.7500    0.0000 C   0  0
    0.0000    1.5000    0.0000 C   0  0
   -1.2990    0.7500    0.0000 C   0  0
   -2.7248    1.2135    0.0000 N   0  0
   -3.6065    0.0000    0.0000 C   0  0
   -5.1047   -0.0031    0.0000 C   0  0
   -5.8570    1.2946    0.0000 O   0  0
   -5.8532   -1.3040    0.0000 C   0  0
   -7.3533   -1.3093    0.0000 C   0  0
   -8.0987   -2.6109    0.0000 C   0  0
   -9.5996   -2.6131    0.0000 O   0  0
  -10.3522   -1.3156    0.0000 C   0  0
   -7.3442   -3.9074    0.0000 C   0  0
   -8.0874   -5.2113    0.0000 O   0  0
   -7.3310   -6.5066    0.0000 C   0  0
   -5.8442   -3.9021    0.0000 C   0  0
   -5.0866   -5.1977    0.0000 O   0  0
   -3.5866   -5.1904    0.0000 C   0  0
   -5.0987   -2.6005    0.0000 C   0  0
   -2.7248   -1.2135    0.0000 C   0  0
   -1.2990   -0.7500    0.0000 C   0  0
    0.0000   -1.5000    0.0000 C   0  0
  1  2  1  0
  2  3  1  0
  3  4  2  0
  4  5  1  0
  5  6  2  0
  6  7  1  0
  7  8  1  0
  8  9  1  0
  9 10  2  0
  9 11  1  0
 11 12  2  0
 12 13  1  0
 13 14  1  0
 14 15  1  0
 13 16  2  0
 16 17  1  0
 17 18  1  0
 16 19  1  0
 19 20  1  0
 20 21  1  0
 19 22  2  0
 22 11  1  0
  8 23  2  0
 23 24  1  0
 24  6  1  0
 24 25  2  0
 25  3  1  0
M  END
> <Smiles>
COc1ccc2[nH]c(C(=O)c3cc(OC)c(OC)c(OC)c3)cc2c1

> <ID>
CHEMBL140681

> <standard_value>
36.1

> <IC50_uM>
0.0361

> <Activity>
Yes

> <pIC50>
7.442492798

> <BCI>
1

$$$$

  SciTegic03012415362D

 51 59  0  0  1  0            999 V2000
    2.5981   -1.5000    0.0000 C   0  0
    1.2990   -0.7500    0.0000 C   0  0  2  0  0  0
    1.2990    0.7500    0.0000 C   0  0
    0.0000    1.5000    0.0000 C   0  0  2  0  0  0
    0.5753    2.9306    0.0000 N   0  0
   -0.5394    3.9343    0.0000 C   0  0  1  0  0  0
   -0.3797    5.4240    0.0000 C   0  0
    0.9922    6.0324    0.0000 C   0  0
    2.2042    5.1486    0.0000 O   0  0
    1.1522    7.5247    0.0000 C   0  0
    2.5225    8.1349    0.0000 C   0  0
    2.6794    9.6267    0.0000 C   0  0
    1.4659   10.5084    0.0000 C   0  0
    0.0955    9.8983    0.0000 C   0  0
   -0.0613    8.4065    0.0000 C   0  0
   -1.8384    3.1842    0.0000 C   0  0
   -1.5266    1.7170    0.0000 S   0  0
   -1.2990    0.7500    0.0000 C   0  0  3  0  0  0
   -1.2991    2.2500    0.0000 O   0  0
   -2.5981    1.5000    0.0000 O   0  0
   -3.8971    0.7500    0.0000 C   0  0  2  0  0  0
   -5.1962    1.5000    0.0000 C   0  0
   -6.4952    0.7500    0.0000 C   0  0  1  0  0  0
   -5.1954   -0.0004    0.0000 C   0  0
   -3.8959    0.7487    0.0000 O   0  0
   -6.4952   -0.7500    0.0000 C   0  0  1  0  0  0
   -7.7942   -1.5001    0.0000 C   0  0
   -9.0933   -0.7501    0.0000 C   0  0
   -9.0933    0.7499    0.0000 C   0  0  2  0  0  0
   -7.7943    1.4999    0.0000 C   0  0  2  0  0  0
   -7.7943    3.0000    0.0000 C   0  0
   -9.0933    3.7499    0.0000 C   0  0
  -10.3923    2.9999    0.0000 C   0  0  2  0  0  0
  -10.5474    4.4919    0.0000 C   0  0
  -11.8073    3.4634    0.0000 C   0  0  1  0  0  0
  -12.2694    4.8913    0.0000 C   0  0
  -11.4786    6.1452    0.0000 C   0  0
  -12.4521    7.2863    0.0000 C   0  0
  -12.1012    8.7447    0.0000 O   0  0
  -13.8383    6.7130    0.0000 O   0  0
  -13.7214    5.2176    0.0000 C   0  0
  -12.6890    2.2499    0.0000 C   0  0
  -11.8073    1.0364    0.0000 C   0  0
  -10.3923    1.4999    0.0000 C   0  0  2  0  0  0
  -10.4964    0.0054    0.0000 C   0  0
  -11.8434   -0.6546    0.0000 O   0  0
   -5.1961   -1.5000    0.0000 C   0  0
   -3.8971   -0.7500    0.0000 C   0  0  1  0  0  0
   -2.5981   -1.5000    0.0000 O   0  0
   -1.2990   -0.7500    0.0000 C   0  0  2  0  0  0
    0.0000   -1.5000    0.0000 O   0  0
  2  1  1  1
  2  3  1  0
  4  3  1  1
  4  5  1  0
  5  6  1  0
  6  7  1  6
  7  8  1  0
  8  9  2  0
  8 10  1  0
 10 11  2  0
 11 12  1  0
 12 13  2  0
 13 14  1  0
 14 15  2  0
 15 10  1  0
  6 16  1  0
 16 17  1  0
 17  4  1  0
  4 18  1  0
 18 19  1  4
 18 20  1  0
 21 20  1  1
 21 22  1  0
 22 23  1  0
 23 24  1  6
 24 25  1  0
 23 26  1  0
 26 27  1  6
 27 28  1  0
 29 28  1  1
 29 30  1  0
 30 23  1  0
 30 31  1  6
 31 32  1  0
 32 33  1  0
 33 34  1  6
 33 35  1  0
 35 36  1  6
 36 37  2  0
 37 38  1  0
 38 39  2  0
 38 40  1  0
 40 41  1  0
 41 36  1  0
 35 42  1  0
 42 43  1  0
 43 44  1  0
 44 29  1  0
 44 33  1  0
 44 45  1  6
 45 46  1  0
 26 47  1  0
 48 47  1  6
 48 21  1  0
 48 49  1  0
 50 49  1  1
 50 18  1  0
 50 51  1  0
 51  2  1  0
M  END
> <Smiles>
C[C@@H]1C[C@@]2(N[C@@H](CC(=O)c3ccccc3)CS2)C2(O)O[C@@H]3C[C@@]4(CO)[C@@H](CC[C@@H]5[C@@H]4CC[C@]4(C)[C@@H](C6=CC(=O)OC6)CC[C@]54CO)C[C@H]3O[C@@H]2O1

> <ID>
CHEMBL175947

> <standard_value>
38

> <IC50_uM>
0.038

> <Activity>
Yes

> <pIC50>
7.420216403

> <BCI>
1

$$$$

  SciTegic03012415362D

 30 33  0  0  0  0            999 V2000
    2.5981   -1.5000    0.0000 O   0  0
    1.2990   -0.7500    0.0000 C   0  0
    1.2990    0.7500    0.0000 C   0  0
    2.5981    1.5000    0.0000 N   0  0
    2.5981    3.0000    0.0000 C   0  0
    3.8971    3.7500    0.0000 O   0  0
    1.2990    3.7500    0.0000 C   0  0
    0.0000    3.0000    0.0000 C   0  0
    0.0000    1.5000    0.0000 C   0  0
   -1.2990    0.7500    0.0000 C   0  0
   -2.1651    1.2500    0.0000 O   0  0
   -1.2990   -0.7500    0.0000 C   0  0
   -2.5981   -1.5000    0.0000 C   0  0
   -3.8978   -0.7496    0.0000 C   0  0
   -5.1957   -1.5017    0.0000 C   0  0
   -6.4959   -0.7537    0.0000 C   0  0
   -6.4983    0.7463    0.0000 C   0  0
   -5.2005    1.4983    0.0000 C   0  0
   -3.9003    0.7504    0.0000 C   0  0
   -2.6033    1.5056    0.0000 N   0  0
   -2.6079    3.0064    0.0000 C   0  0
   -3.9094    3.7520    0.0000 O   0  0
   -1.3109    3.7616    0.0000 C   0  0
   -1.3155    5.2616    0.0000 F   0  0
   -0.0143    4.5158    0.0000 F   0  0
   -0.4432    3.2646    0.0000 F   0  0
   -2.5981   -3.0000    0.0000 C   0  0
   -1.2990   -3.7500    0.0000 C   0  0
    0.0000   -3.0000    0.0000 N   0  0
    0.0000   -1.5000    0.0000 C   0  0
  1  2  2  0
  2  3  1  0
  3  4  2  0
  4  5  1  0
  5  6  1  0
  5  7  2  0
  7  8  1  0
  8  9  2  0
  9  3  1  0
  9 10  1  0
 10 11  2  0
 10 12  1  0
 12 13  2  0
 13 14  1  0
 14 15  2  0
 15 16  1  0
 16 17  2  0
 17 18  1  0
 18 19  2  0
 19 14  1  0
 19 20  1  0
 20 21  1  0
 21 22  2  0
 21 23  1  0
 23 24  1  0
 23 25  1  0
 23 26  1  0
 13 27  1  0
 27 28  2  0
 28 29  1  0
 29 30  2  0
 30 12  1  0
 30  2  1  0
M  END
> <Smiles>
O=C1c2nc(O)ccc2C(=O)c2c(-c3ccccc3NC(=O)C(F)(F)F)ccnc21

> <ID>
CHEMBL109640

> <standard_value>
40

> <IC50_uM>
0.04

> <Activity>
Yes

> <pIC50>
7.397940009

> <BCI>
1

$$$$

  SciTegic03012415362D

 42 49  0  0  1  0            999 V2000
    2.5981   -1.5000    0.0000 C   0  0
    1.2990   -0.7500    0.0000 C   0  0  2  0  0  0
    1.2990    0.7500    0.0000 C   0  0
    0.0000    1.5000    0.0000 C   0  0  2  0  0  0
    0.5753    2.9306    0.0000 N   0  0
   -0.5394    3.9343    0.0000 C   0  0
   -0.3826    5.4260    0.0000 N   0  0
   -1.8384    3.1842    0.0000 C   0  0
   -1.5266    1.7170    0.0000 S   0  0
   -1.2990    0.7500    0.0000 C   0  0  2  0  0  0
   -1.2991    2.2500    0.0000 O   0  0
   -2.5981    1.5000    0.0000 O   0  0
   -3.8971    0.7500    0.0000 C   0  0  2  0  0  0
   -5.1962    1.5000    0.0000 C   0  0
   -6.4952    0.7500    0.0000 C   0  0  1  0  0  0
   -5.1954   -0.0004    0.0000 C   0  0
   -3.8959    0.7487    0.0000 O   0  0
   -6.4952   -0.7500    0.0000 C   0  0  1  0  0  0
   -7.7942   -1.5001    0.0000 C   0  0
   -9.0933   -0.7501    0.0000 C   0  0
   -9.0933    0.7499    0.0000 C   0  0  2  0  0  0
   -7.7943    1.4999    0.0000 C   0  0  2  0  0  0
   -7.7943    3.0000    0.0000 C   0  0
   -9.0933    3.7499    0.0000 C   0  0
  -10.3923    2.9999    0.0000 C   0  0  2  0  0  0
  -10.5474    4.4919    0.0000 C   0  0
  -11.8073    3.4634    0.0000 C   0  0  1  0  0  0
  -12.2694    4.8913    0.0000 C   0  0
  -11.4786    6.1452    0.0000 C   0  0
  -12.4521    7.2863    0.0000 C   0  0
  -12.1012    8.7447    0.0000 O   0  0
  -13.8383    6.7130    0.0000 O   0  0
  -13.7214    5.2176    0.0000 C   0  0
  -12.6890    2.2499    0.0000 C   0  0
  -11.8073    1.0364    0.0000 C   0  0
  -10.3923    1.4999    0.0000 C   0  0  2  0  0  0
  -10.5473    0.0080    0.0000 O   0  0
   -5.1961   -1.5000    0.0000 C   0  0
   -3.8971   -0.7500    0.0000 C   0  0  1  0  0  0
   -2.5981   -1.5000    0.0000 O   0  0
   -1.2990   -0.7500    0.0000 C   0  0  2  0  0  0
    0.0000   -1.5000    0.0000 O   0  0
  2  1  1  1
  2  3  1  0
  4  3  1  1
  4  5  1  0
  5  6  2  0
  6  7  1  0
  6  8  1  0
  8  9  1  0
  9  4  1  0
  4 10  1  0
 10 11  1  6
 10 12  1  0
 13 12  1  1
 13 14  1  0
 14 15  1  0
 15 16  1  6
 16 17  2  0
 15 18  1  0
 18 19  1  6
 19 20  1  0
 21 20  1  1
 21 22  1  0
 22 15  1  0
 22 23  1  6
 23 24  1  0
 24 25  1  0
 25 26  1  6
 25 27  1  0
 27 28  1  6
 28 29  2  0
 29 30  1  0
 30 31  2  0
 30 32  1  0
 32 33  1  0
 33 28  1  0
 27 34  1  0
 34 35  1  0
 35 36  1  0
 36 21  1  0
 36 25  1  0
 36 37  1  6
 18 38  1  0
 39 38  1  6
 39 13  1  0
 39 40  1  0
 41 40  1  1
 41 10  1  0
 41 42  1  0
 42  2  1  0
M  END
> <Smiles>
C[C@@H]1C[C@@]2(N=C(N)CS2)[C@]2(O)O[C@@H]3C[C@@]4(C=O)[C@@H](CC[C@@H]5[C@@H]4CC[C@]4(C)[C@@H](C6=CC(=O)OC6)CC[C@]54O)C[C@H]3O[C@@H]2O1

> <ID>
CHEMBL175806

> <standard_value>
40

> <IC50_uM>
0.04

> <Activity>
Yes

> <pIC50>
7.397940009

> <BCI>
1

$$$$

  SciTegic03012415362D

 26 29  0  0  1  0            999 V2000
    2.5981   -1.5000    0.0000 F   0  0
    1.2990   -0.7500    0.0000 C   0  0
    1.2990    0.7500    0.0000 C   0  0
    0.0000    1.5000    0.0000 C   0  0
   -1.2990    0.7500    0.0000 C   0  0
   -1.2990   -0.7500    0.0000 C   0  0
   -2.5972   -1.5031    0.0000 C   0  0
   -2.5951   -3.0039    0.0000 C   0  0
   -3.8933   -3.7570    0.0000 C   0  0
   -4.0312   -5.2379    0.0000 N   0  0
   -5.4984   -5.5497    0.0000 C   0  0  2  0  0  0
   -6.1088   -6.9207    0.0000 C   0  0
   -7.5798   -7.1876    0.0000 C   0  0
   -8.0851   -8.5999    0.0000 C   0  0
   -7.1146   -9.7437    0.0000 C   0  0
   -5.6388   -9.4751    0.0000 C   0  0
   -5.1336   -8.0627    0.0000 C   0  0
   -6.2484   -4.2507    0.0000 C   0  0  2  0  0  0
   -7.7409   -4.0938    0.0000 C   0  0
   -8.4493   -2.7773    0.0000 C   0  0
   -9.9486   -2.7332    0.0000 C   0  0
  -10.7365   -4.0096    0.0000 C   0  0
  -10.0250   -5.3301    0.0000 C   0  0
   -8.5256   -5.3742    0.0000 C   0  0
   -5.2447   -3.1360    0.0000 N   0  0
    0.0000   -1.5000    0.0000 C   0  0
  1  2  1  0
  2  3  2  0
  3  4  1  0
  4  5  2  0
  5  6  1  0
  6  7  1  0
  7  8  1  0
  8  9  1  0
  9 10  2  0
 10 11  1  0
 11 12  1  6
 12 13  2  0
 13 14  1  0
 14 15  2  0
 15 16  1  0
 16 17  2  0
 17 12  1  0
 11 18  1  0
 18 19  1  6
 19 20  2  0
 20 21  1  0
 21 22  2  0
 22 23  1  0
 23 24  2  0
 24 19  1  0
 18 25  1  0
 25  9  1  0
  6 26  2  0
 26  2  1  0
M  END
> <Smiles>
Fc1cccc(CCC2=N[C@H](c3ccccc3)[C@H](c3ccccc3)N2)c1

> <ID>
CHEMBL180072

> <standard_value>
40

> <IC50_uM>
0.04

> <Activity>
Yes

> <pIC50>
7.397940009

> <BCI>
1

$$$$

  SciTegic03012415362D

 23 27  0  0  0  0            999 V2000
    2.5981   -1.5000    0.0000 N   0  0
    1.2990   -0.7500    0.0000 C   0  0
    1.2990    0.7500    0.0000 C   0  0
    0.0000    1.5000    0.0000 C   0  0
   -1.2990    0.7500    0.0000 C   0  0
   -1.2990   -0.7500    0.0000 C   0  0
    0.0000   -1.5000    0.0000 C   0  0
    0.0000   -3.0000    0.0000 N   0  0
   -1.2990   -3.7500    0.0000 C   0  0
   -2.5981   -3.0000    0.0000 C   0  0
   -3.8971   -3.7500    0.0000 C   0  0
   -5.1961   -3.0000    0.0000 N   0  0
   -5.1962   -1.5000    0.0000 C   0  0
   -3.8971   -0.7500    0.0000 C   0  0
   -2.5981   -1.5000    0.0000 C   0  0
   -3.8971   -5.2500    0.0000 C   0  0
   -5.1961   -6.0000    0.0000 N   0  0
   -5.1961   -7.5000    0.0000 C   0  0
   -3.8971   -8.2500    0.0000 C   0  0
   -2.5981   -7.5000    0.0000 C   0  0
   -2.5981   -6.0000    0.0000 C   0  0
   -1.2990   -5.2500    0.0000 C   0  0
    0.0000   -6.0000    0.0000 O   0  0
  1  2  1  0
  2  3  2  0
  3  4  1  0
  4  5  2  0
  5  6  1  0
  6  7  2  0
  7  2  1  0
  7  8  1  0
  8  9  2  0
  9 10  1  0
 10 11  2  0
 11 12  1  0
 12 13  2  0
 13 14  1  0
 14 15  2  0
 15 10  1  0
 15  6  1  0
 11 16  1  0
 16 17  2  0
 17 18  1  0
 18 19  2  0
 19 20  1  0
 20 21  2  0
 21 16  1  0
 21 22  1  0
 22  9  1  0
 22 23  2  0
M  END
> <Smiles>
Nc1cccc2c1nc1c3c(nccc32)-c2ncccc2C1=O

> <ID>
CHEMBL332828

> <standard_value>
50

> <IC50_uM>
0.05

> <Activity>
Yes

> <pIC50>
7.301029996

> <BCI>
1

$$$$

  SciTegic03012415362D

 25 29  0  0  0  0            999 V2000
    2.5951   -3.0031    0.0000 C   0  0
    2.5973   -1.5031    0.0000 N   0  0
    3.8976   -0.7553    0.0000 C   0  0
    1.2990   -0.7500    0.0000 C   0  0
    1.2990    0.7500    0.0000 C   0  0
    0.0000    1.5000    0.0000 C   0  0
   -1.2990    0.7500    0.0000 C   0  0
   -2.5981    1.5000    0.0000 N   0  0
   -3.8971    0.7500    0.0000 C   0  0
   -3.8971   -0.7500    0.0000 C   0  0
   -5.1962   -1.5000    0.0000 C   0  0
   -5.1961   -3.0000    0.0000 N   0  0
   -3.8971   -3.7500    0.0000 C   0  0
   -2.5981   -3.0000    0.0000 C   0  0
   -2.5981   -1.5000    0.0000 C   0  0
   -1.2990   -0.7500    0.0000 C   0  0
    0.0000   -1.5000    0.0000 C   0  0
   -6.4952   -0.7500    0.0000 C   0  0
   -7.7942   -1.5000    0.0000 N   0  0
   -9.0933   -0.7500    0.0000 C   0  0
   -9.0933    0.7500    0.0000 C   0  0
   -7.7942    1.5000    0.0000 C   0  0
   -6.4952    0.7500    0.0000 C   0  0
   -5.1962    1.5000    0.0000 C   0  0
   -5.1962    3.0000    0.0000 O   0  0
  1  2  1  0
  2  3  1  0
  2  4  1  0
  4  5  2  0
  5  6  1  0
  6  7  2  0
  7  8  1  0
  8  9  2  0
  9 10  1  0
 10 11  2  0
 11 12  1  0
 12 13  2  0
 13 14  1  0
 14 15  2  0
 15 10  1  0
 15 16  1  0
 16  7  1  0
 16 17  2  0
 17  4  1  0
 11 18  1  0
 18 19  2  0
 19 20  1  0
 20 21  2  0
 21 22  1  0
 22 23  2  0
 23 18  1  0
 23 24  1  0
 24  9  1  0
 24 25  2  0
M  END
> <Smiles>
CN(C)c1ccc2nc3c4c(nccc4c2c1)-c1ncccc1C3=O

> <ID>
CHEMBL332240

> <standard_value>
50

> <IC50_uM>
0.05

> <Activity>
Yes

> <pIC50>
7.301029996

> <BCI>
1

$$$$

  SciTegic03012415362D

 26 30  0  0  1  0            999 V2000
    8.2653   -8.1012    0.0000 C   0  0
    7.0492   -8.9792    0.0000 C   0  0
    5.6807   -8.3650    0.0000 C   0  0
    5.5298   -6.8776    0.0000 C   0  0
    4.2107   -6.1619    0.0000 C   0  0  1  0  0  0
    4.0146   -4.6747    0.0000 N   0  0
    2.5536   -4.4230    0.0000 C   0  0
    1.8032   -3.1233    0.0000 C   0  0
    2.4133   -1.7530    0.0000 C   0  0
    1.2990   -0.7500    0.0000 C   0  0
    1.2990    0.7500    0.0000 C   0  0
    0.0000    1.5000    0.0000 C   0  0
   -1.2990    0.7500    0.0000 C   0  0
   -1.2990   -0.7500    0.0000 C   0  0
    0.0000   -1.5000    0.0000 C   0  0
    0.3114   -2.9665    0.0000 C   0  0
    1.8242   -5.7201    0.0000 N   0  0
    2.8570   -6.8080    0.0000 C   0  0  1  0  0  0
    2.5838   -8.2836    0.0000 C   0  0
    3.6453   -9.3365    0.0000 C   0  0
    3.2620  -10.7867    0.0000 C   0  0
    1.8145  -11.1800    0.0000 C   0  0
    0.7502  -10.1230    0.0000 C   0  0
    1.1334   -8.6727    0.0000 C   0  0
    6.7445   -5.9947    0.0000 C   0  0
    8.1130   -6.6089    0.0000 C   0  0
  1  2  2  0
  2  3  1  0
  3  4  2  0
  5  4  1  6
  5  6  1  0
  6  7  2  0
  7  8  1  0
  8  9  1  0
  9 10  1  0
 10 11  2  0
 11 12  1  0
 12 13  2  0
 13 14  1  0
 14 15  2  0
 15 10  1  0
 15 16  1  0
 16  8  1  0
  7 17  1  0
 17 18  1  0
 18  5  1  0
 18 19  1  6
 19 20  2  0
 20 21  1  0
 21 22  2  0
 22 23  1  0
 23 24  2  0
 24 19  1  0
  4 25  1  0
 25 26  2  0
 26  1  1  0
M  END
> <Smiles>
c1ccc([C@H]2N=C(C3Cc4ccccc4C3)N[C@H]2c2ccccc2)cc1

> <ID>
CHEMBL178978

> <standard_value>
50

> <IC50_uM>
0.05

> <Activity>
Yes

> <pIC50>
7.301029996

> <BCI>
1

$$$$

  SciTegic03012415362D

 29 33  0  0  0  0            999 V2000
    2.5981   -1.5000    0.0000 O   0  0
    1.2990   -0.7500    0.0000 C   0  0
    1.2990    0.7500    0.0000 C   0  0
    2.5981    1.5000    0.0000 C   0  0
    2.5981    3.0000    0.0000 C   0  0
    1.2990    3.7500    0.0000 C   0  0
    0.0000    3.0000    0.0000 N   0  0
    0.0000    1.5000    0.0000 C   0  0
   -1.2990    0.7500    0.0000 C   0  0
   -2.5981    1.5000    0.0000 N   0  0
   -3.8971    0.7500    0.0000 C   0  0
   -3.8971   -0.7500    0.0000 C   0  0
   -2.5981   -1.5000    0.0000 C   0  0
   -1.2990   -0.7500    0.0000 C   0  0
    0.0000   -1.5000    0.0000 C   0  0
    0.0000   -3.0000    0.0000 N   0  0
   -1.2990   -3.7500    0.0000 C   0  0
   -1.2990   -5.2500    0.0000 C   0  0
   -2.5981   -6.0000    0.0000 C   0  0
   -3.8971   -5.2500    0.0000 C   0  0
   -5.1984   -5.9978    0.0000 N   0  0
   -6.4971   -5.2455    0.0000 C   0  0
   -7.7984   -5.9933    0.0000 C   0  0
   -9.0963   -5.2414    0.0000 Cl  0  0
   -5.2041   -7.4986    0.0000 C   0  0
   -6.5062   -8.2449    0.0000 C   0  0
   -6.5119   -9.7449    0.0000 Cl  0  0
   -3.8971   -3.7500    0.0000 C   0  0
   -2.5981   -3.0000    0.0000 C   0  0
  1  2  2  0
  2  3  1  0
  3  4  2  0
  4  5  1  0
  5  6  2  0
  6  7  1  0
  7  8  2  0
  8  3  1  0
  8  9  1  0
  9 10  2  0
 10 11  1  0
 11 12  2  0
 12 13  1  0
 13 14  2  0
 14  9  1  0
 14 15  1  0
 15  2  1  0
 15 16  2  0
 16 17  1  0
 17 18  2  0
 18 19  1  0
 19 20  2  0
 20 21  1  0
 21 22  1  0
 22 23  1  0
 23 24  1  0
 21 25  1  0
 25 26  1  0
 26 27  1  0
 20 28  1  0
 28 29  2  0
 29 17  1  0
 29 13  1  0
M  END
> <Smiles>
O=C1c2cccnc2-c2nccc3c2c1nc1ccc(N(CCCl)CCCl)cc13

> <ID>
CHEMBL125191

> <standard_value>
60

> <IC50_uM>
0.06

> <Activity>
Yes

> <pIC50>
7.22184875

> <BCI>
1

$$$$

  SciTegic03012415362D

 19 21  0  0  0  0            999 V2000
    2.5951   -3.0031    0.0000 C   0  0
    2.5973   -1.5031    0.0000 O   0  0
    1.2990   -0.7500    0.0000 C   0  0
    1.2990    0.7500    0.0000 C   0  0
    0.0000    1.5000    0.0000 C   0  0
   -1.2990    0.7500    0.0000 C   0  0
   -2.7248    1.2135    0.0000 N   0  0
   -3.6065    0.0000    0.0000 C   0  0
   -5.1047   -0.0031    0.0000 C   0  0
   -5.8570    1.2946    0.0000 O   0  0
   -5.8532   -1.3040    0.0000 C   0  0
   -7.3533   -1.3093    0.0000 C   0  0
   -8.0987   -2.6109    0.0000 C   0  0
   -7.3442   -3.9074    0.0000 C   0  0
   -5.8442   -3.9021    0.0000 C   0  0
   -5.0987   -2.6005    0.0000 C   0  0
   -2.7248   -1.2135    0.0000 C   0  0
   -1.2990   -0.7500    0.0000 C   0  0
    0.0000   -1.5000    0.0000 C   0  0
  1  2  1  0
  2  3  1  0
  3  4  2  0
  4  5  1  0
  5  6  2  0
  6  7  1  0
  7  8  1  0
  8  9  1  0
  9 10  2  0
  9 11  1  0
 11 12  2  0
 12 13  1  0
 13 14  2  0
 14 15  1  0
 15 16  2  0
 16 11  1  0
  8 17  2  0
 17 18  1  0
 18  6  1  0
 18 19  2  0
 19  3  1  0
M  END
> <Smiles>
COc1ccc2[nH]c(C(=O)c3ccccc3)cc2c1

> <ID>
CHEMBL140220

> <standard_value>
62.7

> <IC50_uM>
0.0627

> <Activity>
Yes

> <pIC50>
7.202732459

> <BCI>
1

$$$$

  SciTegic03012415362D

 28 32  0  0  0  0            999 V2000
    5.1887   -6.0105    0.0000 C   0  0
    3.8912   -5.2578    0.0000 N   0  0
    2.5909   -6.0056    0.0000 C   0  0
    3.8933   -3.7570    0.0000 C   0  0
    2.5951   -3.0039    0.0000 C   0  0
    2.5973   -1.5031    0.0000 N   0  0
    1.2990   -0.7500    0.0000 C   0  0
    1.2990    0.7500    0.0000 C   0  0
    0.0000    1.5000    0.0000 C   0  0
   -1.2990    0.7500    0.0000 C   0  0
   -2.5981    1.5000    0.0000 N   0  0
   -3.8971    0.7500    0.0000 C   0  0
   -3.8971   -0.7500    0.0000 C   0  0
   -5.1962   -1.5000    0.0000 C   0  0
   -5.1961   -3.0000    0.0000 N   0  0
   -3.8971   -3.7500    0.0000 C   0  0
   -2.5981   -3.0000    0.0000 C   0  0
   -2.5981   -1.5000    0.0000 C   0  0
   -1.2990   -0.7500    0.0000 C   0  0
    0.0000   -1.5000    0.0000 C   0  0
   -6.4952   -0.7500    0.0000 C   0  0
   -7.7942   -1.5000    0.0000 N   0  0
   -9.0933   -0.7500    0.0000 C   0  0
   -9.0933    0.7500    0.0000 C   0  0
   -7.7942    1.5000    0.0000 C   0  0
   -6.4952    0.7500    0.0000 C   0  0
   -5.1962    1.5000    0.0000 C   0  0
   -5.1962    3.0000    0.0000 O   0  0
  1  2  1  0
  2  3  1  0
  2  4  1  0
  4  5  1  0
  5  6  1  0
  6  7  1  0
  7  8  2  0
  8  9  1  0
  9 10  2  0
 10 11  1  0
 11 12  2  0
 12 13  1  0
 13 14  2  0
 14 15  1  0
 15 16  2  0
 16 17  1  0
 17 18  2  0
 18 13  1  0
 18 19  1  0
 19 10  1  0
 19 20  2  0
 20  7  1  0
 14 21  1  0
 21 22  2  0
 22 23  1  0
 23 24  2  0
 24 25  1  0
 25 26  2  0
 26 21  1  0
 26 27  1  0
 27 12  1  0
 27 28  2  0
M  END
> <Smiles>
CN(C)CCNc1ccc2nc3c4c(nccc4c2c1)-c1ncccc1C3=O

> <ID>
CHEMBL333225

> <standard_value>
70

> <IC50_uM>
0.07

> <Activity>
Yes

> <pIC50>
7.15490196

> <BCI>
1

$$$$

  SciTegic03012415362D

 20 23  0  0  0  0            999 V2000
    3.8983   -0.7459    0.0000 C   0  0
    2.6003   -1.4977    0.0000 O   0  0
    1.2990   -0.7500    0.0000 C   0  0
    1.2990    0.7500    0.0000 C   0  0
    0.0000    1.5000    0.0000 N   0  0
   -1.2990    0.7500    0.0000 C   0  0
   -1.2990   -0.7500    0.0000 C   0  0
   -2.5981   -1.5000    0.0000 C   0  0
   -2.5981   -3.0000    0.0000 N   0  0
   -1.2990   -3.7500    0.0000 C   0  0
    0.0000   -3.0000    0.0000 C   0  0
    0.0000   -1.5000    0.0000 C   0  0
   -3.8971   -0.7500    0.0000 C   0  0
   -5.1962   -1.5000    0.0000 C   0  0
   -6.4952   -0.7500    0.0000 C   0  0
   -6.4952    0.7500    0.0000 C   0  0
   -5.1962    1.5000    0.0000 N   0  0
   -3.8971    0.7500    0.0000 C   0  0
   -2.5981    1.5000    0.0000 C   0  0
   -2.5981    3.0000    0.0000 O   0  0
  1  2  1  0
  2  3  1  0
  3  4  2  0
  4  5  1  0
  5  6  2  0
  6  7  1  0
  7  8  2  0
  8  9  1  0
  9 10  2  0
 10 11  1  0
 11 12  2  0
 12  3  1  0
 12  7  1  0
  8 13  1  0
 13 14  2  0
 14 15  1  0
 15 16  2  0
 16 17  1  0
 17 18  2  0
 18 13  1  0
 18 19  1  0
 19  6  1  0
 19 20  2  0
M  END
> <Smiles>
COc1cnc2c3c(nccc13)-c1cccnc1C2=O

> <ID>
CHEMBL117427

> <standard_value>
70

> <IC50_uM>
0.07

> <Activity>
Yes

> <pIC50>
7.15490196

> <BCI>
1

$$$$

  SciTegic03012415362D

 26 29  0  0  1  0            999 V2000
    2.5981   -1.5000    0.0000 Cl  0  0
    1.2990   -0.7500    0.0000 C   0  0
    1.2990    0.7500    0.0000 C   0  0
    0.0000    1.5000    0.0000 C   0  0
   -1.2990    0.7500    0.0000 C   0  0
   -1.2990   -0.7500    0.0000 C   0  0
    0.0000   -1.5000    0.0000 C   0  0
   -0.0031   -3.0008    0.0000 C   0  0
   -1.3039   -3.7494    0.0000 C   0  0
   -1.3070   -5.2502    0.0000 C   0  0
   -2.5205   -6.1100    0.0000 N   0  0
   -2.0570   -7.5366    0.0000 C   0  0  2  0  0  0
   -2.9391   -8.7508    0.0000 C   0  0
   -2.4347  -10.1581    0.0000 C   0  0
   -3.4052  -11.3019    0.0000 C   0  0
   -4.8809  -11.0333    0.0000 C   0  0
   -5.3862   -9.6209    0.0000 C   0  0
   -4.4157   -8.4772    0.0000 C   0  0
   -0.5570   -7.5366    0.0000 C   0  0  2  0  0  0
    0.3251   -8.7508    0.0000 C   0  0
    1.8195   -8.7059    0.0000 C   0  0
    2.6074   -9.9824    0.0000 C   0  0
    1.8959  -11.3029    0.0000 C   0  0
    0.3965  -11.3470    0.0000 C   0  0
   -0.3913  -10.0705    0.0000 C   0  0
   -0.0934   -6.1100    0.0000 N   0  0
  1  2  1  0
  2  3  2  0
  3  4  1  0
  4  5  2  0
  5  6  1  0
  6  7  2  0
  7  2  1  0
  7  8  1  0
  8  9  1  0
  9 10  1  0
 10 11  2  0
 11 12  1  0
 12 13  1  1
 13 14  2  0
 14 15  1  0
 15 16  2  0
 16 17  1  0
 17 18  2  0
 18 13  1  0
 12 19  1  0
 19 20  1  1
 20 21  2  0
 21 22  1  0
 22 23  2  0
 23 24  1  0
 24 25  2  0
 25 20  1  0
 19 26  1  0
 26 10  1  0
M  END
> <Smiles>
Clc1ccccc1CCC1=N[C@H](c2ccccc2)[C@H](c2ccccc2)N1

> <ID>
CHEMBL175530

> <standard_value>
70

> <IC50_uM>
0.07

> <Activity>
Yes

> <pIC50>
7.15490196

> <BCI>
1

$$$$

  SciTegic03012415362D

 26 29  0  0  1  0            999 V2000
    2.5981   -1.5000    0.0000 C   0  0
    1.2990   -0.7500    0.0000 C   0  0
    1.2990    0.7500    0.0000 C   0  0
    0.0000    1.5000    0.0000 C   0  0
   -1.2990    0.7500    0.0000 C   0  0
   -1.2990   -0.7500    0.0000 C   0  0
    0.0000   -1.5000    0.0000 C   0  0
   -0.0031   -3.0008    0.0000 C   0  0
   -1.3039   -3.7494    0.0000 C   0  0
   -1.3070   -5.2502    0.0000 C   0  0
   -2.5205   -6.1100    0.0000 N   0  0
   -2.0570   -7.5366    0.0000 C   0  0  2  0  0  0
   -2.9391   -8.7508    0.0000 C   0  0
   -2.4347  -10.1581    0.0000 C   0  0
   -3.4052  -11.3019    0.0000 C   0  0
   -4.8809  -11.0333    0.0000 C   0  0
   -5.3862   -9.6209    0.0000 C   0  0
   -4.4157   -8.4772    0.0000 C   0  0
   -0.5570   -7.5366    0.0000 C   0  0  2  0  0  0
    0.3251   -8.7508    0.0000 C   0  0
    1.8195   -8.7059    0.0000 C   0  0
    2.6074   -9.9824    0.0000 C   0  0
    1.8959  -11.3029    0.0000 C   0  0
    0.3965  -11.3470    0.0000 C   0  0
   -0.3913  -10.0705    0.0000 C   0  0
   -0.0934   -6.1100    0.0000 N   0  0
  1  2  1  0
  2  3  2  0
  3  4  1  0
  4  5  2  0
  5  6  1  0
  6  7  2  0
  7  2  1  0
  7  8  1  0
  8  9  1  0
  9 10  1  0
 10 11  2  0
 11 12  1  0
 12 13  1  1
 13 14  2  0
 14 15  1  0
 15 16  2  0
 16 17  1  0
 17 18  2  0
 18 13  1  0
 12 19  1  0
 19 20  1  1
 20 21  2  0
 21 22  1  0
 22 23  2  0
 23 24  1  0
 24 25  2  0
 25 20  1  0
 19 26  1  0
 26 10  1  0
M  END
> <Smiles>
Cc1ccccc1CCC1=N[C@H](c2ccccc2)[C@H](c2ccccc2)N1

> <ID>
CHEMBL178085

> <standard_value>
70

> <IC50_uM>
0.07

> <Activity>
Yes

> <pIC50>
7.15490196

> <BCI>
1

$$$$

  SciTegic03012415362D

 25 29  0  0  0  0            999 V2000
    3.8983   -0.7459    0.0000 C   0  0
    2.6003   -1.4977    0.0000 N   0  0
    2.6030   -2.9977    0.0000 C   0  0
    1.2990   -0.7500    0.0000 C   0  0
    1.2990    0.7500    0.0000 C   0  0
    0.0000    1.5000    0.0000 C   0  0
   -1.2990    0.7500    0.0000 N   0  0
   -1.2990   -0.7500    0.0000 C   0  0
    0.0000   -1.5000    0.0000 C   0  0
    0.0000   -3.0000    0.0000 C   0  0
    1.2991   -3.7500    0.0000 N   0  0
    1.2991   -5.2500    0.0000 C   0  0
    2.5981   -6.0000    0.0000 C   0  0
    2.5981   -7.5000    0.0000 C   0  0
    1.2991   -8.2500    0.0000 C   0  0
    0.0000   -7.5000    0.0000 C   0  0
    0.0000   -6.0000    0.0000 C   0  0
   -1.2990   -5.2500    0.0000 C   0  0
   -2.5981   -6.0000    0.0000 C   0  0
   -3.8971   -5.2500    0.0000 C   0  0
   -3.8971   -3.7500    0.0000 N   0  0
   -2.5981   -3.0000    0.0000 C   0  0
   -1.2990   -3.7500    0.0000 C   0  0
   -2.5981   -1.5000    0.0000 C   0  0
   -3.8971   -0.7500    0.0000 O   0  0
  1  2  1  0
  2  3  1  0
  2  4  1  0
  4  5  2  0
  5  6  1  0
  6  7  2  0
  7  8  1  0
  8  9  2  0
  9  4  1  0
  9 10  1  0
 10 11  2  0
 11 12  1  0
 12 13  2  0
 13 14  1  0
 14 15  2  0
 15 16  1  0
 16 17  2  0
 17 12  1  0
 17 18  1  0
 18 19  2  0
 19 20  1  0
 20 21  2  0
 21 22  1  0
 22 23  2  0
 23 10  1  0
 23 18  1  0
 22 24  1  0
 24  8  1  0
 24 25  2  0
M  END
> <Smiles>
CN(C)c1ccnc2c1-c1nc3ccccc3c3ccnc(c13)C2=O

> <ID>
CHEMBL111477

> <standard_value>
80

> <IC50_uM>
0.08

> <Activity>
Yes

> <pIC50>
7.096910013

> <BCI>
1

$$$$

  SciTegic03012415362D

 24 28  0  0  0  0            999 V2000
    2.5951   -3.0031    0.0000 C   0  0
    2.5973   -1.5031    0.0000 O   0  0
    1.2990   -0.7500    0.0000 C   0  0
    1.2990    0.7500    0.0000 C   0  0
    0.0000    1.5000    0.0000 C   0  0
   -1.2990    0.7500    0.0000 C   0  0
   -2.5981    1.5000    0.0000 N   0  0
   -3.8971    0.7500    0.0000 C   0  0
   -3.8971   -0.7500    0.0000 C   0  0
   -5.1962   -1.5000    0.0000 C   0  0
   -5.1961   -3.0000    0.0000 N   0  0
   -3.8971   -3.7500    0.0000 C   0  0
   -2.5981   -3.0000    0.0000 C   0  0
   -2.5981   -1.5000    0.0000 C   0  0
   -1.2990   -0.7500    0.0000 C   0  0
    0.0000   -1.5000    0.0000 C   0  0
   -6.4952   -0.7500    0.0000 C   0  0
   -7.7942   -1.5000    0.0000 N   0  0
   -9.0933   -0.7500    0.0000 C   0  0
   -9.0933    0.7500    0.0000 C   0  0
   -7.7942    1.5000    0.0000 C   0  0
   -6.4952    0.7500    0.0000 C   0  0
   -5.1962    1.5000    0.0000 C   0  0
   -5.1962    3.0000    0.0000 O   0  0
  1  2  1  0
  2  3  1  0
  3  4  2  0
  4  5  1  0
  5  6  2  0
  6  7  1  0
  7  8  2  0
  8  9  1  0
  9 10  2  0
 10 11  1  0
 11 12  2  0
 12 13  1  0
 13 14  2  0
 14  9  1  0
 14 15  1  0
 15  6  1  0
 15 16  2  0
 16  3  1  0
 10 17  1  0
 17 18  2  0
 18 19  1  0
 19 20  2  0
 20 21  1  0
 21 22  2  0
 22 17  1  0
 22 23  1  0
 23  8  1  0
 23 24  2  0
M  END
> <Smiles>
COc1ccc2nc3c4c(nccc4c2c1)-c1ncccc1C3=O

> <ID>
CHEMBL125395

> <standard_value>
80

> <IC50_uM>
0.08

> <Activity>
Yes

> <pIC50>
7.096910013

> <BCI>
1

$$$$

  SciTegic03012415362D

 25 28  0  0  1  0            999 V2000
    2.5981   -1.5000    0.0000 F   0  0
    1.2990   -0.7500    0.0000 C   0  0
    1.2990    0.7500    0.0000 C   0  0
    0.0000    1.5000    0.0000 C   0  0
   -1.2990    0.7500    0.0000 C   0  0
   -1.2990   -0.7500    0.0000 C   0  0
   -2.5972   -1.5031    0.0000 C   0  0
   -2.5951   -3.0039    0.0000 C   0  0
   -3.8056   -3.8680    0.0000 N   0  0
   -3.3371   -5.2929    0.0000 C   0  0  2  0  0  0
   -4.2150   -6.5101    0.0000 C   0  0
   -3.7057   -7.9157    0.0000 C   0  0
   -4.6722   -9.0628    0.0000 C   0  0
   -6.1489   -8.7994    0.0000 C   0  0
   -6.6591   -7.3888    0.0000 C   0  0
   -5.6926   -6.2417    0.0000 C   0  0
   -1.8371   -5.2877    0.0000 C   0  0  2  0  0  0
   -0.9508   -6.4988    0.0000 C   0  0
    0.5434   -6.4487    0.0000 C   0  0
    1.3357   -7.7224    0.0000 C   0  0
    0.6288   -9.0454    0.0000 C   0  0
   -0.8704   -9.0947    0.0000 C   0  0
   -1.6627   -7.8210    0.0000 C   0  0
   -1.3786   -3.8595    0.0000 N   0  0
    0.0000   -1.5000    0.0000 C   0  0
  1  2  1  0
  2  3  2  0
  3  4  1  0
  4  5  2  0
  5  6  1  0
  6  7  1  0
  7  8  1  0
  8  9  2  0
  9 10  1  0
 10 11  1  1
 11 12  2  0
 12 13  1  0
 13 14  2  0
 14 15  1  0
 15 16  2  0
 16 11  1  0
 10 17  1  0
 17 18  1  1
 18 19  2  0
 19 20  1  0
 20 21  2  0
 21 22  1  0
 22 23  2  0
 23 18  1  0
 17 24  1  0
 24  8  1  0
  6 25  2  0
 25  2  1  0
M  END
> <Smiles>
Fc1cccc(CC2=N[C@H](c3ccccc3)[C@H](c3ccccc3)N2)c1

> <ID>
CHEMBL181561

> <standard_value>
80

> <IC50_uM>
0.08

> <Activity>
Yes

> <pIC50>
7.096910013

> <BCI>
1

$$$$

  SciTegic03012415362D

 25 28  0  0  1  0            999 V2000
    2.5981   -1.5000    0.0000 F   0  0
    1.2990   -0.7500    0.0000 C   0  0
    1.2990    0.7500    0.0000 C   0  0
    0.0000    1.5000    0.0000 C   0  0
   -1.2990    0.7500    0.0000 C   0  0
   -2.6003    1.4977    0.0000 C   0  0
   -3.8990    0.7455    0.0000 C   0  0
   -5.2526    1.3618    0.0000 N   0  0
   -6.2524    0.2436    0.0000 C   0  0  2  0  0  0
   -7.7454    0.3952    0.0000 C   0  0
   -8.7081   -0.7486    0.0000 C   0  0
  -10.1847   -0.4852    0.0000 C   0  0
  -10.6949    0.9254    0.0000 C   0  0
   -9.7284    2.0725    0.0000 C   0  0
   -8.2517    1.8090    0.0000 C   0  0
   -5.4979   -1.0529    0.0000 C   0  0  2  0  0  0
   -6.1035   -2.4260    0.0000 C   0  0
   -5.3131   -3.6950    0.0000 C   0  0
   -6.0199   -5.0180    0.0000 C   0  0
   -7.5191   -5.0673    0.0000 C   0  0
   -8.3114   -3.7936    0.0000 C   0  0
   -7.6046   -2.4706    0.0000 C   0  0
   -4.0317   -0.7359    0.0000 N   0  0
   -1.2990   -0.7500    0.0000 C   0  0
    0.0000   -1.5000    0.0000 C   0  0
  1  2  1  0
  2  3  2  0
  3  4  1  0
  4  5  2  0
  5  6  1  0
  6  7  1  0
  7  8  2  0
  8  9  1  0
  9 10  1  1
 10 11  2  0
 11 12  1  0
 12 13  2  0
 13 14  1  0
 14 15  2  0
 15 10  1  0
  9 16  1  0
 16 17  1  1
 17 18  2  0
 18 19  1  0
 19 20  2  0
 20 21  1  0
 21 22  2  0
 22 17  1  0
 16 23  1  0
 23  7  1  0
  5 24  1  0
 24 25  2  0
 25  2  1  0
M  END
> <Smiles>
Fc1ccc(CC2=N[C@H](c3ccccc3)[C@H](c3ccccc3)N2)cc1

> <ID>
CHEMBL181167

> <standard_value>
80

> <IC50_uM>
0.08

> <Activity>
Yes

> <pIC50>
7.096910013

> <BCI>
1

$$$$

  SciTegic03012415362D

 25 28  0  0  1  0            999 V2000
    1.2990   -0.7500    0.0000 C   0  0
    1.2990    0.7500    0.0000 C   0  0
    0.0000    1.5000    0.0000 C   0  0
   -1.2990    0.7500    0.0000 C   0  0
   -2.6003    1.4977    0.0000 C   0  0
   -3.8990    0.7455    0.0000 C   0  0
   -5.2003    1.4932    0.0000 C   0  0
   -6.5517    0.8722    0.0000 N   0  0
   -7.5554    1.9869    0.0000 C   0  0  2  0  0  0
   -9.0479    1.8300    0.0000 C   0  0
  -10.0145    2.9705    0.0000 C   0  0
  -11.4903    2.7019    0.0000 C   0  0
  -11.9956    1.2896    0.0000 C   0  0
  -11.0251    0.1458    0.0000 C   0  0
   -9.5493    0.4144    0.0000 C   0  0
   -6.8054    3.2859    0.0000 C   0  0  2  0  0  0
   -7.4158    4.6569    0.0000 C   0  0
   -6.6298    5.9287    0.0000 C   0  0
   -7.3413    7.2492    0.0000 C   0  0
   -8.8407    7.2933    0.0000 C   0  0
   -9.6285    6.0168    0.0000 C   0  0
   -8.9171    4.6963    0.0000 C   0  0
   -5.3382    2.9741    0.0000 N   0  0
   -1.2990   -0.7500    0.0000 C   0  0
    0.0000   -1.5000    0.0000 C   0  0
  1  2  2  0
  2  3  1  0
  3  4  2  0
  4  5  1  0
  5  6  1  0
  6  7  1  0
  7  8  2  0
  8  9  1  0
  9 10  1  6
 10 11  2  0
 11 12  1  0
 12 13  2  0
 13 14  1  0
 14 15  2  0
 15 10  1  0
  9 16  1  0
 16 17  1  6
 17 18  2  0
 18 19  1  0
 19 20  2  0
 20 21  1  0
 21 22  2  0
 22 17  1  0
 16 23  1  0
 23  7  1  0
  4 24  1  0
 24 25  2  0
 25  1  1  0
M  END
> <Smiles>
c1ccc(CCC2=N[C@H](c3ccccc3)[C@H](c3ccccc3)N2)cc1

> <ID>
CHEMBL183352

> <standard_value>
80

> <IC50_uM>
0.08

> <Activity>
Yes

> <pIC50>
7.096910013

> <BCI>
1

$$$$

  SciTegic03012415362D

 51 59  0  0  1  0            999 V2000
    2.5981   -1.5000    0.0000 C   0  0
    1.2990   -0.7500    0.0000 C   0  0  2  0  0  0
    1.2990    0.7500    0.0000 C   0  0
    0.0000    1.5000    0.0000 C   0  0  2  0  0  0
    0.5753    2.9306    0.0000 N   0  0
   -0.5394    3.9343    0.0000 C   0  0  1  0  0  0
   -0.3797    5.4240    0.0000 C   0  0
    0.9922    6.0324    0.0000 C   0  0
    2.2042    5.1486    0.0000 O   0  0
    1.1522    7.5247    0.0000 C   0  0
    2.5225    8.1349    0.0000 C   0  0
    2.6794    9.6267    0.0000 C   0  0
    1.4659   10.5084    0.0000 C   0  0
    0.0955    9.8983    0.0000 C   0  0
   -0.0613    8.4065    0.0000 C   0  0
   -1.8384    3.1842    0.0000 C   0  0
   -1.5266    1.7170    0.0000 S   0  0
   -1.2990    0.7500    0.0000 C   0  0  3  0  0  0
   -1.2991    2.2500    0.0000 O   0  0
   -2.5981    1.5000    0.0000 O   0  0
   -3.8971    0.7500    0.0000 C   0  0  2  0  0  0
   -5.1962    1.5000    0.0000 C   0  0
   -6.4952    0.7500    0.0000 C   0  0  1  0  0  0
   -5.1954   -0.0004    0.0000 C   0  0
   -3.8959    0.7487    0.0000 O   0  0
   -6.4952   -0.7500    0.0000 C   0  0  1  0  0  0
   -7.7942   -1.5001    0.0000 C   0  0
   -9.0933   -0.7501    0.0000 C   0  0
   -9.0933    0.7499    0.0000 C   0  0  2  0  0  0
   -7.7943    1.4999    0.0000 C   0  0  2  0  0  0
   -7.7943    3.0000    0.0000 C   0  0
   -9.0933    3.7499    0.0000 C   0  0
  -10.3923    2.9999    0.0000 C   0  0  2  0  0  0
  -10.5474    4.4919    0.0000 C   0  0
  -11.8073    3.4634    0.0000 C   0  0  1  0  0  0
  -12.2694    4.8913    0.0000 C   0  0
  -11.4786    6.1452    0.0000 C   0  0
  -12.4521    7.2863    0.0000 C   0  0
  -12.1012    8.7447    0.0000 O   0  0
  -13.8383    6.7130    0.0000 O   0  0
  -13.7214    5.2176    0.0000 C   0  0
  -12.6890    2.2499    0.0000 C   0  0
  -11.8073    1.0364    0.0000 C   0  0
  -10.3923    1.4999    0.0000 C   0  0  2  0  0  0
  -10.4964    0.0054    0.0000 C   0  0
  -11.8434   -0.6546    0.0000 O   0  0
   -5.1961   -1.5000    0.0000 C   0  0
   -3.8971   -0.7500    0.0000 C   0  0  1  0  0  0
   -2.5981   -1.5000    0.0000 O   0  0
   -1.2990   -0.7500    0.0000 C   0  0  2  0  0  0
    0.0000   -1.5000    0.0000 O   0  0
  2  1  1  1
  2  3  1  0
  4  3  1  1
  4  5  1  0
  5  6  1  0
  6  7  1  6
  7  8  1  0
  8  9  2  0
  8 10  1  0
 10 11  2  0
 11 12  1  0
 12 13  2  0
 13 14  1  0
 14 15  2  0
 15 10  1  0
  6 16  1  0
 16 17  1  0
 17  4  1  0
  4 18  1  0
 18 19  1  4
 18 20  1  0
 21 20  1  1
 21 22  1  0
 22 23  1  0
 23 24  1  6
 24 25  2  0
 23 26  1  0
 26 27  1  6
 27 28  1  0
 29 28  1  1
 29 30  1  0
 30 23  1  0
 30 31  1  6
 31 32  1  0
 32 33  1  0
 33 34  1  6
 33 35  1  0
 35 36  1  6
 36 37  2  0
 37 38  1  0
 38 39  2  0
 38 40  1  0
 40 41  1  0
 41 36  1  0
 35 42  1  0
 42 43  1  0
 43 44  1  0
 44 29  1  0
 44 33  1  0
 44 45  1  6
 45 46  1  0
 26 47  1  0
 48 47  1  6
 48 21  1  0
 48 49  1  0
 50 49  1  1
 50 18  1  0
 50 51  1  0
 51  2  1  0
M  END
> <Smiles>
C[C@@H]1C[C@@]2(N[C@@H](CC(=O)c3ccccc3)CS2)C2(O)O[C@@H]3C[C@@]4(C=O)[C@@H](CC[C@@H]5[C@@H]4CC[C@]4(C)[C@@H](C6=CC(=O)OC6)CC[C@]54CO)C[C@H]3O[C@@H]2O1

> <ID>
CHEMBL177836

> <standard_value>
84

> <IC50_uM>
0.084

> <Activity>
Yes

> <pIC50>
7.075720714

> <BCI>
1

$$$$

  SciTegic03012415362D

 25 29  0  0  0  0            999 V2000
    2.5981   -1.5000    0.0000 O   0  0
    1.2990   -0.7500    0.0000 C   0  0
    1.2990    0.7500    0.0000 C   0  0
    2.5981    1.5000    0.0000 N   0  0
    2.5981    3.0000    0.0000 C   0  0
    1.2990    3.7500    0.0000 C   0  0
    0.0000    3.0000    0.0000 C   0  0
   -1.2982    3.7531    0.0000 N   0  3
   -1.2961    5.2531    0.0000 O   0  0
   -2.5986    3.0053    0.0000 O   0  5
    0.0000    1.5000    0.0000 C   0  0
   -1.2990    0.7500    0.0000 C   0  0
   -2.5981    1.5000    0.0000 N   0  0
   -3.8971    0.7500    0.0000 C   0  0
   -5.1962    1.5000    0.0000 C   0  0
   -6.4952    0.7500    0.0000 C   0  0
   -6.4952   -0.7500    0.0000 C   0  0
   -5.1961   -1.5000    0.0000 C   0  0
   -3.8971   -0.7500    0.0000 C   0  0
   -2.5981   -1.5000    0.0000 C   0  0
   -2.5981   -3.0000    0.0000 C   0  0
   -1.2990   -3.7500    0.0000 C   0  0
    0.0000   -3.0000    0.0000 N   0  0
    0.0000   -1.5000    0.0000 C   0  0
   -1.2990   -0.7500    0.0000 C   0  0
  1  2  2  0
  2  3  1  0
  3  4  2  0
  4  5  1  0
  5  6  2  0
  6  7  1  0
  7  8  1  0
  8  9  2  0
  8 10  1  0
  7 11  2  0
 11  3  1  0
 11 12  1  0
 12 13  2  0
 13 14  1  0
 14 15  2  0
 15 16  1  0
 16 17  2  0
 17 18  1  0
 18 19  2  0
 19 14  1  0
 19 20  1  0
 20 21  2  0
 21 22  1  0
 22 23  2  0
 23 24  1  0
 24  2  1  0
 24 25  2  0
 25 12  1  0
 25 20  1  0
M  CHG  2   8   1  10  -1
M  END
> <Smiles>
O=C1c2nccc([N+](=O)[O-])c2-c2nc3ccccc3c3ccnc1c23

> <ID>
CHEMBL323280

> <standard_value>
90

> <IC50_uM>
0.09

> <Activity>
Yes

> <pIC50>
7.045757491

> <BCI>
1

$$$$

  SciTegic03012415362D

 33 36  0  0  0  0            999 V2000
    3.8964    0.7545    0.0000 C   0  0
    3.8990   -0.7455    0.0000 C   0  0
    5.1996   -1.4928    0.0000 O   0  0
    2.6003   -1.4977    0.0000 N   0  0
    1.2990   -0.7500    0.0000 C   0  0
    1.2990    0.7500    0.0000 C   0  0
    0.0000    1.5000    0.0000 C   0  0
   -1.2990    0.7500    0.0000 N   0  0
   -1.2990   -0.7500    0.0000 C   0  0
    0.0000   -1.5000    0.0000 C   0  0
    0.0000   -3.0000    0.0000 C   0  0
    1.2990   -3.7500    0.0000 O   0  0
   -1.2990   -3.7500    0.0000 C   0  0
   -1.2990   -5.2500    0.0000 C   0  0
    0.0007   -6.0004    0.0000 C   0  0
    1.2986   -5.2484    0.0000 C   0  0
    2.5988   -5.9963    0.0000 C   0  0
    2.6012   -7.4963    0.0000 C   0  0
    1.3034   -8.2484    0.0000 C   0  0
    0.0031   -7.5004    0.0000 C   0  0
   -1.2938   -8.2556    0.0000 N   0  0
   -1.2893   -9.7565    0.0000 C   0  0
    0.0123  -10.5021    0.0000 O   0  0
   -2.5862  -10.5117    0.0000 C   0  0
   -2.5817  -12.0117    0.0000 F   0  0
   -3.8829  -11.2658    0.0000 F   0  0
   -3.8878   -9.7660    0.0000 F   0  0
   -2.5981   -6.0000    0.0000 C   0  0
   -3.8971   -5.2500    0.0000 C   0  0
   -3.8971   -3.7500    0.0000 N   0  0
   -2.5981   -3.0000    0.0000 C   0  0
   -2.5981   -1.5000    0.0000 C   0  0
   -3.8971   -0.7500    0.0000 O   0  0
  1  2  1  0
  2  3  2  0
  2  4  1  0
  4  5  1  0
  5  6  2  0
  6  7  1  0
  7  8  2  0
  8  9  1  0
  9 10  2  0
 10  5  1  0
 10 11  1  0
 11 12  2  0
 11 13  1  0
 13 14  2  0
 14 15  1  0
 15 16  2  0
 16 17  1  0
 17 18  2  0
 18 19  1  0
 19 20  2  0
 20 15  1  0
 20 21  1  0
 21 22  1  0
 22 23  2  0
 22 24  1  0
 24 25  1  0
 24 26  1  0
 24 27  1  0
 14 28  1  0
 28 29  2  0
 29 30  1  0
 30 31  2  0
 31 13  1  0
 31 32  1  0
 32  9  1  0
 32 33  2  0
M  END
> <Smiles>
CC(=O)Nc1ccnc2c1C(=O)c1c(-c3ccccc3NC(=O)C(F)(F)F)ccnc1C2=O

> <ID>
CHEMBL324780

> <standard_value>
90

> <IC50_uM>
0.09

> <Activity>
Yes

> <pIC50>
7.045757491

> <BCI>
1

$$$$

  SciTegic03012415362D

 30 33  0  0  0  0            999 V2000
    2.5981   -1.5000    0.0000 O   0  0
    1.2990   -0.7500    0.0000 C   0  0
    1.2990    0.7500    0.0000 C   0  0
    2.5981    1.5000    0.0000 N   0  0
    2.5981    3.0000    0.0000 C   0  0
    1.2990    3.7500    0.0000 C   0  0
    0.0000    3.0000    0.0000 C   0  0
   -0.8660    3.5000    0.0000 Cl  0  0
    0.0000    1.5000    0.0000 C   0  0
   -1.2990    0.7500    0.0000 C   0  0
   -2.1651    1.2500    0.0000 O   0  0
   -1.2990   -0.7500    0.0000 C   0  0
   -2.5981   -1.5000    0.0000 C   0  0
   -3.8978   -0.7496    0.0000 C   0  0
   -3.8955    0.7504    0.0000 C   0  0
   -5.1934    1.5025    0.0000 C   0  0
   -6.4936    0.7545    0.0000 C   0  0
   -6.4959   -0.7455    0.0000 C   0  0
   -5.1981   -1.4975    0.0000 C   0  0
   -5.2036   -2.9984    0.0000 N   0  0
   -6.5056   -3.7448    0.0000 C   0  0
   -7.8022   -2.9904    0.0000 O   0  0
   -6.5112   -5.2456    0.0000 C   0  0
   -7.8125   -5.9917    0.0000 F   0  0
   -6.5160   -6.7456    0.0000 F   0  0
   -5.6468   -5.7485    0.0000 F   0  0
   -2.5981   -3.0000    0.0000 C   0  0
   -1.2990   -3.7500    0.0000 C   0  0
    0.0000   -3.0000    0.0000 N   0  0
    0.0000   -1.5000    0.0000 C   0  0
  1  2  2  0
  2  3  1  0
  3  4  2  0
  4  5  1  0
  5  6  2  0
  6  7  1  0
  7  8  1  0
  7  9  2  0
  9  3  1  0
  9 10  1  0
 10 11  2  0
 10 12  1  0
 12 13  2  0
 13 14  1  0
 14 15  2  0
 15 16  1  0
 16 17  2  0
 17 18  1  0
 18 19  2  0
 19 14  1  0
 19 20  1  0
 20 21  1  0
 21 22  2  0
 21 23  1  0
 23 24  1  0
 23 25  1  0
 23 26  1  0
 13 27  1  0
 27 28  2  0
 28 29  1  0
 29 30  2  0
 30 12  1  0
 30  2  1  0
M  END
> <Smiles>
O=C1c2nccc(Cl)c2C(=O)c2c(-c3ccccc3NC(=O)C(F)(F)F)ccnc21

> <ID>
CHEMBL109479

> <standard_value>
90

> <IC50_uM>
0.09

> <Activity>
Yes

> <pIC50>
7.045757491

> <BCI>
1

$$$$

  SciTegic03012415362D

 23 27  0  0  0  0            999 V2000
    2.5981   -1.5000    0.0000 O   0  0
    1.2990   -0.7500    0.0000 C   0  0
    1.2990    0.7500    0.0000 C   0  0
    2.5981    1.5000    0.0000 N   0  0
    2.5981    3.0000    0.0000 C   0  0
    1.2990    3.7500    0.0000 C   0  0
    0.0000    3.0000    0.0000 C   0  0
   -1.2991    3.7500    0.0000 Cl  0  0
    0.0000    1.5000    0.0000 C   0  0
   -1.2990    0.7500    0.0000 C   0  0
   -2.5981    1.5000    0.0000 N   0  0
   -3.8971    0.7500    0.0000 C   0  0
   -5.1962    1.5000    0.0000 C   0  0
   -6.4952    0.7500    0.0000 C   0  0
   -6.4952   -0.7500    0.0000 C   0  0
   -5.1961   -1.5000    0.0000 C   0  0
   -3.8971   -0.7500    0.0000 C   0  0
   -2.5981   -1.5000    0.0000 C   0  0
   -2.5981   -3.0000    0.0000 C   0  0
   -1.2990   -3.7500    0.0000 C   0  0
    0.0000   -3.0000    0.0000 N   0  0
    0.0000   -1.5000    0.0000 C   0  0
   -1.2990   -0.7500    0.0000 C   0  0
  1  2  2  0
  2  3  1  0
  3  4  2  0
  4  5  1  0
  5  6  2  0
  6  7  1  0
  7  8  1  0
  7  9  2  0
  9  3  1  0
  9 10  1  0
 10 11  2  0
 11 12  1  0
 12 13  2  0
 13 14  1  0
 14 15  2  0
 15 16  1  0
 16 17  2  0
 17 12  1  0
 17 18  1  0
 18 19  2  0
 19 20  1  0
 20 21  2  0
 21 22  1  0
 22  2  1  0
 22 23  2  0
 23 10  1  0
 23 18  1  0
M  END
> <Smiles>
O=C1c2nccc(Cl)c2-c2nc3ccccc3c3ccnc1c23

> <ID>
CHEMBL113387

> <standard_value>
100

> <IC50_uM>
0.1

> <Activity>
Yes

> <pIC50>
7

> <BCI>
1

$$$$

  SciTegic03012415362D

 23 27  0  0  0  0            999 V2000
    2.5981   -1.5000    0.0000 N   0  0
    1.2990   -0.7500    0.0000 C   0  0
    1.2990    0.7500    0.0000 C   0  0
    0.0000    1.5000    0.0000 C   0  0
   -1.2990    0.7500    0.0000 N   0  0
   -1.2990   -0.7500    0.0000 C   0  0
    0.0000   -1.5000    0.0000 C   0  0
    0.0000   -3.0000    0.0000 C   0  0
    1.2991   -3.7500    0.0000 N   0  0
    1.2991   -5.2500    0.0000 C   0  0
    2.5981   -6.0000    0.0000 C   0  0
    2.5981   -7.5000    0.0000 C   0  0
    1.2991   -8.2500    0.0000 C   0  0
    0.0000   -7.5000    0.0000 C   0  0
    0.0000   -6.0000    0.0000 C   0  0
   -1.2990   -5.2500    0.0000 C   0  0
   -2.5981   -6.0000    0.0000 C   0  0
   -3.8971   -5.2500    0.0000 C   0  0
   -3.8971   -3.7500    0.0000 N   0  0
   -2.5981   -3.0000    0.0000 C   0  0
   -1.2990   -3.7500    0.0000 C   0  0
   -2.5981   -1.5000    0.0000 C   0  0
   -3.8971   -0.7500    0.0000 O   0  0
  1  2  1  0
  2  3  2  0
  3  4  1  0
  4  5  2  0
  5  6  1  0
  6  7  2  0
  7  2  1  0
  7  8  1  0
  8  9  2  0
  9 10  1  0
 10 11  2  0
 11 12  1  0
 12 13  2  0
 13 14  1  0
 14 15  2  0
 15 10  1  0
 15 16  1  0
 16 17  2  0
 17 18  1  0
 18 19  2  0
 19 20  1  0
 20 21  2  0
 21  8  1  0
 21 16  1  0
 20 22  1  0
 22  6  1  0
 22 23  2  0
M  END
> <Smiles>
Nc1ccnc2c1-c1nc3ccccc3c3ccnc(c13)C2=O

> <ID>
CHEMBL322816

> <standard_value>
100

> <IC50_uM>
0.1

> <Activity>
Yes

> <pIC50>
7

> <BCI>
1

$$$$

  SciTegic03012415362D

 23 27  0  0  0  0            999 V2000
    2.5981   -1.5000    0.0000 O   0  0
    1.2990   -0.7500    0.0000 C   0  0
    1.2990    0.7500    0.0000 C   0  0
    2.5981    1.5000    0.0000 N   0  0
    2.5981    3.0000    0.0000 C   0  0
    1.2990    3.7500    0.0000 C   0  0
    0.0000    3.0000    0.0000 C   0  0
   -1.2991    3.7500    0.0000 O   0  0
    0.0000    1.5000    0.0000 C   0  0
   -1.2990    0.7500    0.0000 C   0  0
   -2.5981    1.5000    0.0000 N   0  0
   -3.8971    0.7500    0.0000 C   0  0
   -5.1962    1.5000    0.0000 C   0  0
   -6.4952    0.7500    0.0000 C   0  0
   -6.4952   -0.7500    0.0000 C   0  0
   -5.1961   -1.5000    0.0000 C   0  0
   -3.8971   -0.7500    0.0000 C   0  0
   -2.5981   -1.5000    0.0000 C   0  0
   -2.5981   -3.0000    0.0000 C   0  0
   -1.2990   -3.7500    0.0000 C   0  0
    0.0000   -3.0000    0.0000 N   0  0
    0.0000   -1.5000    0.0000 C   0  0
   -1.2990   -0.7500    0.0000 C   0  0
  1  2  2  0
  2  3  1  0
  3  4  2  0
  4  5  1  0
  5  6  2  0
  6  7  1  0
  7  8  1  0
  7  9  2  0
  9  3  1  0
  9 10  1  0
 10 11  2  0
 11 12  1  0
 12 13  2  0
 13 14  1  0
 14 15  2  0
 15 16  1  0
 16 17  2  0
 17 12  1  0
 17 18  1  0
 18 19  2  0
 19 20  1  0
 20 21  2  0
 21 22  1  0
 22  2  1  0
 22 23  2  0
 23 10  1  0
 23 18  1  0
M  END
> <Smiles>
O=C1c2nccc(O)c2-c2nc3ccccc3c3ccnc1c23

> <ID>
CHEMBL327101

> <standard_value>
100

> <IC50_uM>
0.1

> <Activity>
Yes

> <pIC50>
7

> <BCI>
1

$$$$

  SciTegic03012415362D

 23 27  0  0  0  0            999 V2000
    2.5981   -1.5000    0.0000 C   0  0
    1.2990   -0.7500    0.0000 C   0  0
    1.2990    0.7500    0.0000 C   0  0
    0.0000    1.5000    0.0000 C   0  0
   -1.2990    0.7500    0.0000 C   0  0
   -2.5981    1.5000    0.0000 N   0  0
   -3.8971    0.7500    0.0000 C   0  0
   -3.8971   -0.7500    0.0000 C   0  0
   -5.1962   -1.5000    0.0000 C   0  0
   -5.1961   -3.0000    0.0000 N   0  0
   -3.8971   -3.7500    0.0000 C   0  0
   -2.5981   -3.0000    0.0000 C   0  0
   -2.5981   -1.5000    0.0000 C   0  0
   -1.2990   -0.7500    0.0000 C   0  0
    0.0000   -1.5000    0.0000 C   0  0
   -6.4952   -0.7500    0.0000 C   0  0
   -7.7942   -1.5000    0.0000 N   0  0
   -9.0933   -0.7500    0.0000 C   0  0
   -9.0933    0.7500    0.0000 C   0  0
   -7.7942    1.5000    0.0000 C   0  0
   -6.4952    0.7500    0.0000 C   0  0
   -5.1962    1.5000    0.0000 C   0  0
   -5.1962    3.0000    0.0000 O   0  0
  1  2  1  0
  2  3  2  0
  3  4  1  0
  4  5  2  0
  5  6  1  0
  6  7  2  0
  7  8  1  0
  8  9  2  0
  9 10  1  0
 10 11  2  0
 11 12  1  0
 12 13  2  0
 13  8  1  0
 13 14  1  0
 14  5  1  0
 14 15  2  0
 15  2  1  0
  9 16  1  0
 16 17  2  0
 17 18  1  0
 18 19  2  0
 19 20  1  0
 20 21  2  0
 21 16  1  0
 21 22  1  0
 22  7  1  0
 22 23  2  0
M  END
> <Smiles>
Cc1ccc2nc3c4c(nccc4c2c1)-c1ncccc1C3=O

> <ID>
CHEMBL333669

> <standard_value>
100

> <IC50_uM>
0.1

> <Activity>
Yes

> <pIC50>
7

> <BCI>
1

$$$$

  SciTegic03012415362D

 26 29  0  0  1  0            999 V2000
    2.5981   -1.5000    0.0000 Cl  0  0
    1.2990   -0.7500    0.0000 C   0  0
    1.2990    0.7500    0.0000 C   0  0
    0.0000    1.5000    0.0000 C   0  0
   -1.2990    0.7500    0.0000 C   0  0
   -1.2990   -0.7500    0.0000 C   0  0
   -2.5972   -1.5031    0.0000 C   0  0
   -2.5951   -3.0039    0.0000 C   0  0
   -3.8933   -3.7570    0.0000 C   0  0
   -4.0312   -5.2379    0.0000 N   0  0
   -5.4984   -5.5497    0.0000 C   0  0  2  0  0  0
   -6.1088   -6.9207    0.0000 C   0  0
   -7.5798   -7.1876    0.0000 C   0  0
   -8.0851   -8.5999    0.0000 C   0  0
   -7.1146   -9.7437    0.0000 C   0  0
   -5.6388   -9.4751    0.0000 C   0  0
   -5.1336   -8.0627    0.0000 C   0  0
   -6.2484   -4.2507    0.0000 C   0  0  2  0  0  0
   -7.7409   -4.0938    0.0000 C   0  0
   -8.4493   -2.7773    0.0000 C   0  0
   -9.9486   -2.7332    0.0000 C   0  0
  -10.7365   -4.0096    0.0000 C   0  0
  -10.0250   -5.3301    0.0000 C   0  0
   -8.5256   -5.3742    0.0000 C   0  0
   -5.2447   -3.1360    0.0000 N   0  0
    0.0000   -1.5000    0.0000 C   0  0
  1  2  1  0
  2  3  2  0
  3  4  1  0
  4  5  2  0
  5  6  1  0
  6  7  1  0
  7  8  1  0
  8  9  1  0
  9 10  2  0
 10 11  1  0
 11 12  1  6
 12 13  2  0
 13 14  1  0
 14 15  2  0
 15 16  1  0
 16 17  2  0
 17 12  1  0
 11 18  1  0
 18 19  1  6
 19 20  2  0
 20 21  1  0
 21 22  2  0
 22 23  1  0
 23 24  2  0
 24 19  1  0
 18 25  1  0
 25  9  1  0
  6 26  2  0
 26  2  1  0
M  END
> <Smiles>
Clc1cccc(CCC2=N[C@H](c3ccccc3)[C@H](c3ccccc3)N2)c1

> <ID>
CHEMBL179674

> <standard_value>
120

> <IC50_uM>
0.12

> <Activity>
Yes

> <pIC50>
6.920818754

> <BCI>
1

$$$$

  SciTegic03012415362D

 27 30  0  0  1  0            999 V2000
    2.5981   -1.5000    0.0000 F   0  0
    1.2990   -0.7500    0.0000 C   0  0
    1.2990    0.7500    0.0000 C   0  0
    0.0000    1.5000    0.0000 C   0  0
   -1.2990    0.7500    0.0000 C   0  0
   -2.6003    1.4977    0.0000 C   0  0
   -3.8990    0.7455    0.0000 C   0  0
   -5.2003    1.4932    0.0000 C   0  0
   -6.5517    0.8722    0.0000 N   0  0
   -7.5554    1.9869    0.0000 C   0  0  2  0  0  0
   -9.0479    1.8300    0.0000 C   0  0
  -10.0145    2.9705    0.0000 C   0  0
  -11.4903    2.7019    0.0000 C   0  0
  -11.9956    1.2896    0.0000 C   0  0
  -11.0251    0.1458    0.0000 C   0  0
   -9.5493    0.4144    0.0000 C   0  0
   -6.8054    3.2859    0.0000 C   0  0  2  0  0  0
   -7.4158    4.6569    0.0000 C   0  0
   -6.6298    5.9287    0.0000 C   0  0
   -7.3413    7.2492    0.0000 C   0  0
   -8.8407    7.2933    0.0000 C   0  0
   -9.6285    6.0168    0.0000 C   0  0
   -8.9171    4.6963    0.0000 C   0  0
   -5.3382    2.9741    0.0000 N   0  0
   -1.2990   -0.7500    0.0000 C   0  0
    0.0000   -1.5000    0.0000 C   0  0
    0.0000   -3.0000    0.0000 F   0  0
  1  2  1  0
  2  3  2  0
  3  4  1  0
  4  5  2  0
  5  6  1  0
  6  7  1  0
  7  8  1  0
  8  9  2  0
  9 10  1  0
 10 11  1  6
 11 12  2  0
 12 13  1  0
 13 14  2  0
 14 15  1  0
 15 16  2  0
 16 11  1  0
 10 17  1  0
 17 18  1  6
 18 19  2  0
 19 20  1  0
 20 21  2  0
 21 22  1  0
 22 23  2  0
 23 18  1  0
 17 24  1  0
 24  8  1  0
  5 25  1  0
 25 26  2  0
 26  2  1  0
 26 27  1  0
M  END
> <Smiles>
Fc1ccc(CCC2=N[C@H](c3ccccc3)[C@H](c3ccccc3)N2)cc1F

> <ID>
CHEMBL179502

> <standard_value>
120

> <IC50_uM>
0.12

> <Activity>
Yes

> <pIC50>
6.920818754

> <BCI>
1

$$$$

  SciTegic03012415362D

 35 39  0  0  1  0            999 V2000
    6.4863   -8.2382    0.0000 C   0  0
    7.7879   -7.4927    0.0000 C   0  0
    9.0844   -8.2472    0.0000 C   0  0
   10.3860   -7.5016    0.0000 C   0  0
   11.6824   -8.2560    0.0000 C   0  0
   10.3911   -6.0016    0.0000 C   0  0
    9.0947   -5.2471    0.0000 C   0  0
    9.0967   -3.7463    0.0000 C   0  0
   10.3971   -2.9985    0.0000 O   0  0
    7.7985   -2.9932    0.0000 N   0  0
    6.4995   -3.7432    0.0000 C   0  0
    5.2004   -2.9933    0.0000 C   0  0
    5.2003   -1.4932    0.0000 C   0  0  1  0  0  0
    3.8990   -0.7455    0.0000 N   0  0
    2.6003   -1.4977    0.0000 C   0  0
    1.2990   -0.7500    0.0000 C   0  0
    1.2990    0.7500    0.0000 C   0  0
    0.0000    1.5000    0.0000 C   0  0
   -1.2990    0.7500    0.0000 N   0  0
   -1.2990   -0.7500    0.0000 C   0  0
   -2.5981   -1.5000    0.0000 C   0  0
   -2.5981   -3.0000    0.0000 C   0  0
   -1.2990   -3.7500    0.0000 C   0  0
    0.0000   -3.0000    0.0000 C   0  0
    0.0000   -1.5000    0.0000 C   0  0
    6.4994   -0.7432    0.0000 C   0  0
    7.7985   -1.4932    0.0000 C   0  0  2  0  0  0
    9.0967   -0.7401    0.0000 C   0  0
    9.0945    0.7607    0.0000 C   0  0
   10.3909    1.5154    0.0000 C   0  0
   10.3856    3.0154    0.0000 C   0  0
    9.0840    3.7608    0.0000 C   0  0
    7.7876    3.0063    0.0000 C   0  0
    7.7928    1.5063    0.0000 C   0  0
    7.7930   -5.9927    0.0000 C   0  0
  1  2  1  0
  2  3  2  0
  3  4  1  0
  4  5  1  0
  4  6  2  0
  6  7  1  0
  7  8  1  0
  8  9  2  0
  8 10  1  0
 10 11  1  0
 11 12  1  0
 12 13  1  0
 13 14  1  1
 14 15  1  0
 15 16  1  0
 16 17  2  0
 17 18  1  0
 18 19  2  0
 19 20  1  0
 20 21  2  0
 21 22  1  0
 22 23  2  0
 23 24  1  0
 24 25  2  0
 25 16  1  0
 25 20  1  0
 13 26  1  0
 26 27  1  0
 27 10  1  0
 27 28  1  6
 28 29  1  0
 29 30  2  0
 30 31  1  0
 31 32  2  0
 32 33  1  0
 33 34  2  0
 34 29  1  0
  7 35  2  0
 35  2  1  0
M  END
> <Smiles>
Cc1cc(C)cc(C(=O)N2CC[C@@H](NCc3ccnc4ccccc34)C[C@@H]2Cc2ccccc2)c1

> <ID>
CHEMBL297883

> <standard_value>
150

> <IC50_uM>
0.15

> <Activity>
Yes

> <pIC50>
6.823908741

> <BCI>
1

$$$$

  SciTegic03012415362D

 26 29  0  0  1  0            999 V2000
    2.5981   -1.5000    0.0000 F   0  0
    1.2990   -0.7500    0.0000 C   0  0
    1.2990    0.7500    0.0000 C   0  0
    0.0000    1.5000    0.0000 C   0  0
   -1.2990    0.7500    0.0000 C   0  0
   -1.2990   -0.7500    0.0000 C   0  0
    0.0000   -1.5000    0.0000 C   0  0
   -0.0031   -3.0008    0.0000 C   0  0
   -1.3039   -3.7494    0.0000 C   0  0
   -1.3070   -5.2502    0.0000 C   0  0
   -2.5205   -6.1100    0.0000 N   0  0
   -2.0570   -7.5366    0.0000 C   0  0  2  0  0  0
   -2.9391   -8.7508    0.0000 C   0  0
   -2.4347  -10.1581    0.0000 C   0  0
   -3.4052  -11.3019    0.0000 C   0  0
   -4.8809  -11.0333    0.0000 C   0  0
   -5.3862   -9.6209    0.0000 C   0  0
   -4.4157   -8.4772    0.0000 C   0  0
   -0.5570   -7.5366    0.0000 C   0  0  2  0  0  0
    0.3251   -8.7508    0.0000 C   0  0
    1.8195   -8.7059    0.0000 C   0  0
    2.6074   -9.9824    0.0000 C   0  0
    1.8959  -11.3029    0.0000 C   0  0
    0.3965  -11.3470    0.0000 C   0  0
   -0.3913  -10.0705    0.0000 C   0  0
   -0.0934   -6.1100    0.0000 N   0  0
  1  2  1  0
  2  3  2  0
  3  4  1  0
  4  5  2  0
  5  6  1  0
  6  7  2  0
  7  2  1  0
  7  8  1  0
  8  9  1  0
  9 10  1  0
 10 11  2  0
 11 12  1  0
 12 13  1  1
 13 14  2  0
 14 15  1  0
 15 16  2  0
 16 17  1  0
 17 18  2  0
 18 13  1  0
 12 19  1  0
 19 20  1  1
 20 21  2  0
 21 22  1  0
 22 23  2  0
 23 24  1  0
 24 25  2  0
 25 20  1  0
 19 26  1  0
 26 10  1  0
M  END
> <Smiles>
Fc1ccccc1CCC1=N[C@H](c2ccccc2)[C@H](c2ccccc2)N1

> <ID>
CHEMBL426599

> <standard_value>
160

> <IC50_uM>
0.16

> <Activity>
Yes

> <pIC50>
6.795880017

> <BCI>
1

$$$$

  SciTegic03012415362D

 26 29  0  0  1  0            999 V2000
    2.5981   -1.5000    0.0000 F   0  0
    1.2990   -0.7500    0.0000 C   0  0
    1.2990    0.7500    0.0000 C   0  0
    0.0000    1.5000    0.0000 C   0  0
   -1.2990    0.7500    0.0000 C   0  0
   -2.6003    1.4977    0.0000 C   0  0
   -3.8990    0.7455    0.0000 C   0  0
   -5.2003    1.4932    0.0000 C   0  0
   -6.5517    0.8722    0.0000 N   0  0
   -7.5554    1.9869    0.0000 C   0  0  2  0  0  0
   -9.0479    1.8300    0.0000 C   0  0
  -10.0145    2.9705    0.0000 C   0  0
  -11.4903    2.7019    0.0000 C   0  0
  -11.9956    1.2896    0.0000 C   0  0
  -11.0251    0.1458    0.0000 C   0  0
   -9.5493    0.4144    0.0000 C   0  0
   -6.8054    3.2859    0.0000 C   0  0  2  0  0  0
   -7.4158    4.6569    0.0000 C   0  0
   -6.6298    5.9287    0.0000 C   0  0
   -7.3413    7.2492    0.0000 C   0  0
   -8.8407    7.2933    0.0000 C   0  0
   -9.6285    6.0168    0.0000 C   0  0
   -8.9171    4.6963    0.0000 C   0  0
   -5.3382    2.9741    0.0000 N   0  0
   -1.2990   -0.7500    0.0000 C   0  0
    0.0000   -1.5000    0.0000 C   0  0
  1  2  1  0
  2  3  2  0
  3  4  1  0
  4  5  2  0
  5  6  1  0
  6  7  1  0
  7  8  1  0
  8  9  2  0
  9 10  1  0
 10 11  1  6
 11 12  2  0
 12 13  1  0
 13 14  2  0
 14 15  1  0
 15 16  2  0
 16 11  1  0
 10 17  1  0
 17 18  1  6
 18 19  2  0
 19 20  1  0
 20 21  2  0
 21 22  1  0
 22 23  2  0
 23 18  1  0
 17 24  1  0
 24  8  1  0
  5 25  1  0
 25 26  2  0
 26  2  1  0
M  END
> <Smiles>
Fc1ccc(CCC2=N[C@H](c3ccccc3)[C@H](c3ccccc3)N2)cc1

> <ID>
CHEMBL362703

> <standard_value>
220

> <IC50_uM>
0.22

> <Activity>
Yes

> <pIC50>
6.657577319

> <BCI>
1

$$$$

  SciTegic03012415362D

 27 31  0  0  1  0            999 V2000
    1.9772  -12.5169    0.0000 C   0  0
    0.5666  -12.0067    0.0000 C   0  0
    0.3032  -10.5300    0.0000 C   0  0
    1.4471   -9.5674    0.0000 C   0  0
    1.2954   -8.0744    0.0000 C   0  0  1  0  0  0
    2.4137   -7.0746    0.0000 N   0  0
    1.7974   -5.7210    0.0000 C   0  0
    2.5497   -4.4224    0.0000 C   0  0
    1.8032   -3.1233    0.0000 C   0  0
    2.4133   -1.7530    0.0000 C   0  0
    1.2990   -0.7500    0.0000 C   0  0
    1.2990    0.7500    0.0000 C   0  0
    0.0000    1.5000    0.0000 C   0  0
   -1.2990    0.7500    0.0000 C   0  0
   -1.2990   -0.7500    0.0000 C   0  0
    0.0000   -1.5000    0.0000 C   0  0
    0.3114   -2.9665    0.0000 C   0  0
    0.3160   -5.8537    0.0000 N   0  0
   -0.0010   -7.3198    0.0000 C   0  0  1  0  0  0
   -1.3741   -7.9254    0.0000 C   0  0
   -1.6461   -9.3955    0.0000 C   0  0
   -3.0602   -9.8959    0.0000 C   0  0
   -4.2005   -8.9214    0.0000 C   0  0
   -3.9268   -7.4466    0.0000 C   0  0
   -2.5127   -6.9462    0.0000 C   0  0
    2.8609  -10.0738    0.0000 C   0  0
    3.1243  -11.5504    0.0000 C   0  0
  1  2  2  0
  2  3  1  0
  3  4  2  0
  5  4  1  6
  5  6  1  0
  6  7  2  0
  7  8  1  0
  8  9  1  0
  9 10  1  0
 10 11  1  0
 11 12  2  0
 12 13  1  0
 13 14  2  0
 14 15  1  0
 15 16  2  0
 16 11  1  0
 16 17  1  0
 17  9  1  0
  7 18  1  0
 18 19  1  0
 19  5  1  0
 19 20  1  6
 20 21  2  0
 21 22  1  0
 22 23  2  0
 23 24  1  0
 24 25  2  0
 25 20  1  0
  4 26  1  0
 26 27  2  0
 27  1  1  0
M  END
> <Smiles>
c1ccc([C@H]2N=C(CC3Cc4ccccc4C3)N[C@H]2c2ccccc2)cc1

> <ID>
CHEMBL179379

> <standard_value>
240

> <IC50_uM>
0.24

> <Activity>
Yes

> <pIC50>
6.619788758

> <BCI>
1

$$$$

  SciTegic03012415362D

 25 28  0  0  1  0            999 V2000
    2.5981   -1.5000    0.0000 Cl  0  0
    1.2990   -0.7500    0.0000 C   0  0
    1.2990    0.7500    0.0000 C   0  0
    0.0000    1.5000    0.0000 C   0  0
   -1.2990    0.7500    0.0000 C   0  0
   -2.6003    1.4977    0.0000 C   0  0
   -3.8990    0.7455    0.0000 C   0  0
   -5.2526    1.3618    0.0000 N   0  0
   -6.2524    0.2436    0.0000 C   0  0  2  0  0  0
   -7.7454    0.3952    0.0000 C   0  0
   -8.7081   -0.7486    0.0000 C   0  0
  -10.1847   -0.4852    0.0000 C   0  0
  -10.6949    0.9254    0.0000 C   0  0
   -9.7284    2.0725    0.0000 C   0  0
   -8.2517    1.8090    0.0000 C   0  0
   -5.4979   -1.0529    0.0000 C   0  0  2  0  0  0
   -6.1035   -2.4260    0.0000 C   0  0
   -5.3131   -3.6950    0.0000 C   0  0
   -6.0199   -5.0180    0.0000 C   0  0
   -7.5191   -5.0673    0.0000 C   0  0
   -8.3114   -3.7936    0.0000 C   0  0
   -7.6046   -2.4706    0.0000 C   0  0
   -4.0317   -0.7359    0.0000 N   0  0
   -1.2990   -0.7500    0.0000 C   0  0
    0.0000   -1.5000    0.0000 C   0  0
  1  2  1  0
  2  3  2  0
  3  4  1  0
  4  5  2  0
  5  6  1  0
  6  7  1  0
  7  8  2  0
  8  9  1  0
  9 10  1  1
 10 11  2  0
 11 12  1  0
 12 13  2  0
 13 14  1  0
 14 15  2  0
 15 10  1  0
  9 16  1  0
 16 17  1  1
 17 18  2  0
 18 19  1  0
 19 20  2  0
 20 21  1  0
 21 22  2  0
 22 17  1  0
 16 23  1  0
 23  7  1  0
  5 24  1  0
 24 25  2  0
 25  2  1  0
M  END
> <Smiles>
Clc1ccc(CC2=N[C@H](c3ccccc3)[C@H](c3ccccc3)N2)cc1

> <ID>
CHEMBL181170

> <standard_value>
270

> <IC50_uM>
0.27

> <Activity>
Yes

> <pIC50>
6.568636236

> <BCI>
1

$$$$

  SciTegic03012415362D

 32 35  0  0  0  0            999 V2000
    3.8983   -0.7459    0.0000 C   0  0
    2.6003   -1.4977    0.0000 N   0  0
    2.6030   -2.9977    0.0000 C   0  0
    1.2990   -0.7500    0.0000 C   0  0
    1.2990    0.7500    0.0000 C   0  0
    0.0000    1.5000    0.0000 C   0  0
   -1.2990    0.7500    0.0000 N   0  0
   -1.2990   -0.7500    0.0000 C   0  0
    0.0000   -1.5000    0.0000 C   0  0
    0.0000   -3.0000    0.0000 C   0  0
    1.2990   -3.7500    0.0000 O   0  0
   -1.2990   -3.7500    0.0000 C   0  0
   -1.2990   -5.2500    0.0000 C   0  0
    0.0007   -6.0004    0.0000 C   0  0
    1.2986   -5.2484    0.0000 C   0  0
    2.5988   -5.9963    0.0000 C   0  0
    2.6012   -7.4963    0.0000 C   0  0
    1.3034   -8.2484    0.0000 C   0  0
    0.0031   -7.5004    0.0000 C   0  0
   -1.2938   -8.2556    0.0000 N   0  0
   -1.2893   -9.7565    0.0000 C   0  0
    0.0123  -10.5021    0.0000 O   0  0
   -2.5862  -10.5117    0.0000 C   0  0
   -2.5817  -12.0117    0.0000 F   0  0
   -3.8829  -11.2658    0.0000 F   0  0
   -3.8878   -9.7660    0.0000 F   0  0
   -2.5981   -6.0000    0.0000 C   0  0
   -3.8971   -5.2500    0.0000 C   0  0
   -3.8971   -3.7500    0.0000 N   0  0
   -2.5981   -3.0000    0.0000 C   0  0
   -2.5981   -1.5000    0.0000 C   0  0
   -3.8971   -0.7500    0.0000 O   0  0
  1  2  1  0
  2  3  1  0
  2  4  1  0
  4  5  2  0
  5  6  1  0
  6  7  2  0
  7  8  1  0
  8  9  2  0
  9  4  1  0
  9 10  1  0
 10 11  2  0
 10 12  1  0
 12 13  2  0
 13 14  1  0
 14 15  2  0
 15 16  1  0
 16 17  2  0
 17 18  1  0
 18 19  2  0
 19 14  1  0
 19 20  1  0
 20 21  1  0
 21 22  2  0
 21 23  1  0
 23 24  1  0
 23 25  1  0
 23 26  1  0
 13 27  1  0
 27 28  2  0
 28 29  1  0
 29 30  2  0
 30 12  1  0
 30 31  1  0
 31  8  1  0
 31 32  2  0
M  END
> <Smiles>
CN(C)c1ccnc2c1C(=O)c1c(-c3ccccc3NC(=O)C(F)(F)F)ccnc1C2=O

> <ID>
CHEMBL324884

> <standard_value>
300

> <IC50_uM>
0.3

> <Activity>
Yes

> <pIC50>
6.522878745

> <BCI>
1

$$$$

  SciTegic03012415362D

 47 54  0  0  1  0            999 V2000
    2.5943    4.5058    0.0000 C   0  0
    1.2962    3.7541    0.0000 O   0  0
    1.2971    2.2533    0.0000 C   0  0
    2.5969    1.5045    0.0000 O   0  0
   -0.0017    1.5012    0.0000 O   0  0
   -0.0007    0.0004    0.0000 C   0  0
    1.2990   -0.7500    0.0000 C   0  0  2  0  0  0
    1.2990    0.7500    0.0000 C   0  0
    0.0000    1.5000    0.0000 C   0  0  1  0  0  0
    0.0000    3.0000    0.0000 O   0  0
   -1.2991    3.7500    0.0000 C   0  0  3  0  0  0
    0.0000    4.5000    0.0000 O   0  0
   -2.5981    3.0000    0.0000 C   0  0  1  0  0  0
   -3.8971    3.7500    0.0000 O   0  0
   -3.8972    5.2500    0.0000 C   0  0  2  0  0  0
   -5.1962    6.0000    0.0000 C   0  0
   -2.5981    6.0000    0.0000 C   0  0
   -1.2991    5.2500    0.0000 C   0  0  1  0  0  0
    0.2275    5.4670    0.0000 N   0  0
    0.5393    6.9343    0.0000 C   0  0
    1.9097    7.5444    0.0000 N   0  0
   -0.7597    7.6843    0.0000 C   0  0
   -1.8744    6.6806    0.0000 S   0  0
   -2.5981    1.5000    0.0000 O   0  0
   -1.2990    0.7500    0.0000 C   0  0  2  0  0  0
   -1.2990   -0.7500    0.0000 C   0  0
    0.0000   -1.5000    0.0000 C   0  0  2  0  0  0
    0.0000   -3.0000    0.0000 C   0  0
    1.2990   -3.7500    0.0000 C   0  0
    2.5981   -3.0000    0.0000 C   0  0  2  0  0  0
    2.5981   -1.5000    0.0000 C   0  0  2  0  0  0
    3.8971   -0.7500    0.0000 C   0  0
    5.1962   -1.5000    0.0000 C   0  0
    5.1962   -3.0000    0.0000 C   0  0  2  0  0  0
    6.5657   -2.3882    0.0000 C   0  0
    6.3051   -3.9936    0.0000 C   0  0  1  0  0  0
    7.7727   -3.6799    0.0000 C   0  0
    8.4631   -2.3680    0.0000 C   0  0
    9.9382   -2.6406    0.0000 C   0  0
   11.0256   -1.6074    0.0000 O   0  0
   10.1348   -4.1276    0.0000 O   0  0
    8.7813   -4.7742    0.0000 C   0  0
    5.6950   -5.3640    0.0000 C   0  0
    4.2032   -5.2072    0.0000 C   0  0
    3.8971   -3.7500    0.0000 C   0  0  2  0  0  0
    2.6549   -4.5874    0.0000 C   0  0
    2.7568   -6.0839    0.0000 O   0  0
  1  2  1  0
  2  3  1  0
  3  4  2  0
  3  5  1  0
  5  6  1  0
  7  6  1  1
  7  8  1  0
  9  8  1  6
  9 10  1  0
 10 11  1  0
 11 12  1  4
 11 13  1  0
 13 14  1  6
 14 15  1  0
 15 16  1  6
 15 17  1  0
 18 17  1  1
 18 11  1  0
 18 19  1  0
 19 20  2  0
 20 21  1  0
 20 22  1  0
 22 23  1  0
 23 18  1  0
 13 24  1  0
 25 24  1  1
 25  9  1  0
 25 26  1  0
 27 26  1  1
 27  7  1  0
 27 28  1  0
 28 29  1  0
 30 29  1  6
 30 31  1  0
 31  7  1  0
 31 32  1  1
 32 33  1  0
 33 34  1  0
 34 35  1  1
 34 36  1  0
 36 37  1  1
 37 38  2  0
 38 39  1  0
 39 40  2  0
 39 41  1  0
 41 42  1  0
 42 37  1  0
 36 43  1  0
 43 44  1  0
 44 45  1  0
 45 30  1  0
 45 34  1  0
 45 46  1  1
 46 47  1  0
M  END
> <Smiles>
COC(=O)OC[C@]12C[C@H]3OC4(O)[C@@H](O[C@H](C)C[C@@]45N=C(N)CS5)O[C@@H]3C[C@@H]1CC[C@@H]1[C@@H]2CC[C@]2(C)[C@@H](C3=CC(=O)OC3)CC[C@]12CO

> <ID>
CHEMBL180496

> <standard_value>
320

> <IC50_uM>
0.32

> <Activity>
Yes

> <pIC50>
6.494850022

> <BCI>
1

$$$$

  SciTegic03012415362D

 25 28  0  0  1  0            999 V2000
    2.5981   -1.5000    0.0000 C   0  0
    1.2990   -0.7500    0.0000 C   0  0
    1.2990    0.7500    0.0000 C   0  0
    0.0000    1.5000    0.0000 C   0  0
   -1.2990    0.7500    0.0000 C   0  0
   -1.2990   -0.7500    0.0000 C   0  0
    0.0000   -1.5000    0.0000 C   0  0
   -0.0031   -3.0008    0.0000 C   0  0
   -1.3039   -3.7494    0.0000 C   0  0
   -1.4469   -5.2298    0.0000 N   0  0
   -2.9152   -5.5365    0.0000 C   0  0  2  0  0  0
   -3.5304   -6.9054    0.0000 C   0  0
   -5.0023   -7.1671    0.0000 C   0  0
   -5.5125   -8.5777    0.0000 C   0  0
   -4.5460   -9.7248    0.0000 C   0  0
   -3.0693   -9.4613    0.0000 C   0  0
   -2.5591   -8.0508    0.0000 C   0  0
   -3.6607   -4.2349    0.0000 C   0  0  2  0  0  0
   -5.1527   -4.0728    0.0000 C   0  0
   -5.8564   -2.7538    0.0000 C   0  0
   -7.3556   -2.7045    0.0000 C   0  0
   -8.1479   -3.9782    0.0000 C   0  0
   -7.4410   -5.3012    0.0000 C   0  0
   -5.9418   -5.3505    0.0000 C   0  0
   -2.6531   -3.1237    0.0000 N   0  0
  1  2  1  0
  2  3  2  0
  3  4  1  0
  4  5  2  0
  5  6  1  0
  6  7  2  0
  7  2  1  0
  7  8  1  0
  8  9  1  0
  9 10  2  0
 10 11  1  0
 11 12  1  6
 12 13  2  0
 13 14  1  0
 14 15  2  0
 15 16  1  0
 16 17  2  0
 17 12  1  0
 11 18  1  0
 18 19  1  6
 19 20  2  0
 20 21  1  0
 21 22  2  0
 22 23  1  0
 23 24  2  0
 24 19  1  0
 18 25  1  0
 25  9  1  0
M  END
> <Smiles>
Cc1ccccc1CC1=N[C@H](c2ccccc2)[C@H](c2ccccc2)N1

> <ID>
CHEMBL178345

> <standard_value>
320

> <IC50_uM>
0.32

> <Activity>
Yes

> <pIC50>
6.494850022

> <BCI>
1

$$$$

  SciTegic03012415362D

 31 35  0  0  1  0            999 V2000
    1.2990   -0.7500    0.0000 C   0  0
    1.2990    0.7500    0.0000 C   0  0
    0.0000    1.5000    0.0000 C   0  0
   -1.2990    0.7500    0.0000 C   0  0
   -2.6003    1.4977    0.0000 C   0  0
   -3.8990    0.7455    0.0000 C   0  0
   -5.2003    1.4932    0.0000 C   0  0
   -6.5517    0.8722    0.0000 N   0  0
   -7.5554    1.9869    0.0000 C   0  0  2  0  0  0
   -9.0479    1.8300    0.0000 C   0  0
  -10.0145    2.9705    0.0000 C   0  0
  -11.4903    2.7019    0.0000 C   0  0
  -11.9956    1.2896    0.0000 C   0  0
  -11.0251    0.1458    0.0000 C   0  0
   -9.5493    0.4144    0.0000 C   0  0
   -6.8054    3.2859    0.0000 C   0  0  2  0  0  0
   -7.4158    4.6569    0.0000 C   0  0
   -6.6298    5.9287    0.0000 C   0  0
   -7.3413    7.2492    0.0000 C   0  0
   -8.8407    7.2933    0.0000 C   0  0
   -9.6285    6.0168    0.0000 C   0  0
   -8.9171    4.6963    0.0000 C   0  0
   -5.3382    2.9741    0.0000 N   0  0
   -2.6030    2.9985    0.0000 C   0  0
   -3.9023    3.7481    0.0000 C   0  0
   -3.9029    5.2481    0.0000 C   0  0
   -2.6041    5.9986    0.0000 C   0  0
   -1.3048    5.2491    0.0000 C   0  0
   -1.3042    3.7491    0.0000 C   0  0
   -1.2990   -0.7500    0.0000 C   0  0
    0.0000   -1.5000    0.0000 C   0  0
  1  2  2  0
  2  3  1  0
  3  4  2  0
  4  5  1  0
  5  6  1  0
  6  7  1  0
  7  8  2  0
  8  9  1  0
  9 10  1  6
 10 11  2  0
 11 12  1  0
 12 13  2  0
 13 14  1  0
 14 15  2  0
 15 10  1  0
  9 16  1  0
 16 17  1  6
 17 18  2  0
 18 19  1  0
 19 20  2  0
 20 21  1  0
 21 22  2  0
 22 17  1  0
 16 23  1  0
 23  7  1  0
  5 24  1  0
 24 25  2  0
 25 26  1  0
 26 27  2  0
 27 28  1  0
 28 29  2  0
 29 24  1  0
  4 30  1  0
 30 31  2  0
 31  1  1  0
M  END
> <Smiles>
c1ccc(C(CC2=N[C@H](c3ccccc3)[C@H](c3ccccc3)N2)c2ccccc2)cc1

> <ID>
CHEMBL176074

> <standard_value>
320

> <IC50_uM>
0.32

> <Activity>
Yes

> <pIC50>
6.494850022

> <BCI>
1

$$$$

  SciTegic03012415362D

 53 61  0  0  1  0            999 V2000
   -4.6784   -7.5367    0.0000 C   0  0
   -4.1645   -6.1275    0.0000 C   0  0
   -5.1279   -4.9778    0.0000 C   0  0
   -4.6140   -3.5686    0.0000 C   0  0
   -3.1366   -3.3091    0.0000 C   0  0
   -2.6224   -1.8991    0.0000 S   0  0
   -3.5863   -0.7497    0.0000 O   0  0
   -2.1092   -0.4896    0.0000 O   0  0
   -1.1444   -1.6385    0.0000 O   0  0
   -0.1790   -0.4894    0.0000 C   0  0
    1.2990   -0.7500    0.0000 C   0  0  2  0  0  0
    1.2990    0.7500    0.0000 C   0  0
    0.0000    1.5000    0.0000 C   0  0  1  0  0  0
    0.0000    3.0000    0.0000 O   0  0
   -1.2991    3.7500    0.0000 C   0  0  3  0  0  0
    0.0000    4.5000    0.0000 O   0  0
   -2.5981    3.0000    0.0000 C   0  0  1  0  0  0
   -3.8971    3.7500    0.0000 O   0  0
   -3.8972    5.2500    0.0000 C   0  0  2  0  0  0
   -5.1962    6.0000    0.0000 C   0  0
   -2.5981    6.0000    0.0000 C   0  0
   -1.2991    5.2500    0.0000 C   0  0  1  0  0  0
    0.2275    5.4670    0.0000 N   0  0
    0.5393    6.9343    0.0000 C   0  0
    1.9097    7.5444    0.0000 O   0  0
   -0.7597    7.6843    0.0000 C   0  0
   -1.8744    6.6806    0.0000 S   0  0
   -2.5981    1.5000    0.0000 O   0  0
   -1.2990    0.7500    0.0000 C   0  0  2  0  0  0
   -1.2990   -0.7500    0.0000 C   0  0
    0.0000   -1.5000    0.0000 C   0  0  2  0  0  0
    0.0000   -3.0000    0.0000 C   0  0
    1.2990   -3.7500    0.0000 C   0  0
    2.5981   -3.0000    0.0000 C   0  0  2  0  0  0
    2.5981   -1.5000    0.0000 C   0  0  2  0  0  0
    3.8971   -0.7500    0.0000 C   0  0
    5.1962   -1.5000    0.0000 C   0  0
    5.1962   -3.0000    0.0000 C   0  0  2  0  0  0
    6.5657   -2.3882    0.0000 C   0  0
    6.3051   -3.9936    0.0000 C   0  0  1  0  0  0
    7.7727   -3.6799    0.0000 C   0  0
    8.4631   -2.3680    0.0000 C   0  0
    9.9382   -2.6406    0.0000 C   0  0
   11.0256   -1.6074    0.0000 O   0  0
   10.1348   -4.1276    0.0000 O   0  0
    8.7813   -4.7742    0.0000 C   0  0
    5.6950   -5.3640    0.0000 C   0  0
    4.2032   -5.2072    0.0000 C   0  0
    3.8971   -3.7500    0.0000 C   0  0  2  0  0  0
    2.6549   -4.5874    0.0000 C   0  0
    2.7568   -6.0839    0.0000 O   0  0
   -2.1732   -4.4588    0.0000 C   0  0
   -2.6871   -5.8680    0.0000 C   0  0
  1  2  1  0
  2  3  2  0
  3  4  1  0
  4  5  2  0
  5  6  1  0
  6  7  2  0
  6  8  2  0
  6  9  1  0
  9 10  1  0
 11 10  1  1
 11 12  1  0
 13 12  1  6
 13 14  1  0
 14 15  1  0
 15 16  1  4
 15 17  1  0
 17 18  1  6
 18 19  1  0
 19 20  1  6
 19 21  1  0
 22 21  1  1
 22 15  1  0
 22 23  1  0
 23 24  1  0
 24 25  2  0
 24 26  1  0
 26 27  1  0
 27 22  1  0
 17 28  1  0
 29 28  1  1
 29 13  1  0
 29 30  1  0
 31 30  1  1
 31 11  1  0
 31 32  1  0
 32 33  1  0
 34 33  1  6
 34 35  1  0
 35 11  1  0
 35 36  1  1
 36 37  1  0
 37 38  1  0
 38 39  1  1
 38 40  1  0
 40 41  1  1
 41 42  2  0
 42 43  1  0
 43 44  2  0
 43 45  1  0
 45 46  1  0
 46 41  1  0
 40 47  1  0
 47 48  1  0
 48 49  1  0
 49 34  1  0
 49 38  1  0
 49 50  1  1
 50 51  1  0
  5 52  1  0
 52 53  2  0
 53  2  1  0
M  END
> <Smiles>
Cc1ccc(S(=O)(=O)OC[C@]23C[C@H]4OC5(O)[C@@H](O[C@H](C)C[C@@]56NC(=O)CS6)O[C@@H]4C[C@@H]2CC[C@@H]2[C@@H]3CC[C@]3(C)[C@@H](C4=CC(=O)OC4)CC[C@]23CO)cc1

> <ID>
CHEMBL175716

> <standard_value>
326

> <IC50_uM>
0.326

> <Activity>
Yes

> <pIC50>
6.4867824

> <BCI>
1

$$$$

  SciTegic03012415362D

 34 37  0  0  0  0            999 V2000
    3.8912   -5.2570    0.0000 C   0  0
    3.8933   -3.7570    0.0000 C   0  0
    2.5951   -3.0039    0.0000 O   0  0
    2.5973   -1.5031    0.0000 C   0  0
    3.8976   -0.7553    0.0000 O   0  0
    1.2990   -0.7500    0.0000 C   0  0
    1.2990    0.7500    0.0000 C   0  0
    0.0000    1.5000    0.0000 N   0  0
   -1.2990    0.7500    0.0000 C   0  0
   -1.2990   -0.7500    0.0000 C   0  0
    0.0000   -1.5000    0.0000 C   0  0
   -2.5981   -1.5000    0.0000 C   0  0
   -2.5981   -2.5000    0.0000 O   0  0
   -3.8971   -0.7500    0.0000 C   0  0
   -5.1962   -1.5000    0.0000 C   0  0
   -5.1962   -3.0008    0.0000 C   0  0
   -6.4964   -3.7488    0.0000 C   0  0
   -6.4988   -5.2488    0.0000 C   0  0
   -5.2009   -6.0009    0.0000 C   0  0
   -3.9007   -5.2529    0.0000 C   0  0
   -3.8983   -3.7529    0.0000 C   0  0
   -2.5958   -3.0073    0.0000 N   0  0
   -1.2983   -3.7617    0.0000 C   0  0
   -1.3034   -5.2617    0.0000 O   0  0
    0.0042   -3.0161    0.0000 C   0  0
    1.3009   -3.7700    0.0000 F   0  0
    1.3056   -2.2703    0.0000 F   0  0
    0.0075   -2.0161    0.0000 F   0  0
   -6.4952   -0.7500    0.0000 C   0  0
   -6.4952    0.7500    0.0000 C   0  0
   -5.1962    1.5000    0.0000 N   0  0
   -3.8971    0.7500    0.0000 C   0  0
   -2.5981    1.5000    0.0000 C   0  0
   -2.5981    3.0000    0.0000 O   0  0
  1  2  1  0
  2  3  1  0
  3  4  1  0
  4  5  2  0
  4  6  1  0
  6  7  2  0
  7  8  1  0
  8  9  2  0
  9 10  1  0
 10 11  2  0
 11  6  1  0
 10 12  1  0
 12 13  2  0
 12 14  1  0
 14 15  2  0
 15 16  1  0
 16 17  2  0
 17 18  1  0
 18 19  2  0
 19 20  1  0
 20 21  2  0
 21 16  1  0
 21 22  1  0
 22 23  1  0
 23 24  2  0
 23 25  1  0
 25 26  1  0
 25 27  1  0
 25 28  1  0
 15 29  1  0
 29 30  2  0
 30 31  1  0
 31 32  2  0
 32 14  1  0
 32 33  1  0
 33  9  1  0
 33 34  2  0
M  END
> <Smiles>
CCOC(=O)c1cnc2c(c1)C(=O)c1c(-c3ccccc3NC(=O)C(F)(F)F)ccnc1C2=O

> <ID>
CHEMBL424062

> <standard_value>
400

> <IC50_uM>
0.4

> <Activity>
Yes

> <pIC50>
6.397940009

> <BCI>
1

$$$$

  SciTegic03012415362D

 28 31  0  0  1  0            999 V2000
    3.8983   -0.7512    0.0000 F   0  0
    2.5988   -1.5004    0.0000 C   0  0
    2.5983   -3.0004    0.0000 F   0  0
    3.8975   -2.2510    0.0000 F   0  0
    1.2990   -0.7500    0.0000 C   0  0
    1.2990    0.7500    0.0000 C   0  0
    0.0000    1.5000    0.0000 C   0  0
   -1.2990    0.7500    0.0000 C   0  0
   -2.6003    1.4977    0.0000 C   0  0
   -3.8990    0.7455    0.0000 C   0  0
   -5.2526    1.3618    0.0000 N   0  0
   -6.2524    0.2436    0.0000 C   0  0  2  0  0  0
   -7.7454    0.3952    0.0000 C   0  0
   -8.7081   -0.7486    0.0000 C   0  0
  -10.1847   -0.4852    0.0000 C   0  0
  -10.6949    0.9254    0.0000 C   0  0
   -9.7284    2.0725    0.0000 C   0  0
   -8.2517    1.8090    0.0000 C   0  0
   -5.4979   -1.0529    0.0000 C   0  0  2  0  0  0
   -6.1035   -2.4260    0.0000 C   0  0
   -5.3131   -3.6950    0.0000 C   0  0
   -6.0199   -5.0180    0.0000 C   0  0
   -7.5191   -5.0673    0.0000 C   0  0
   -8.3114   -3.7936    0.0000 C   0  0
   -7.6046   -2.4706    0.0000 C   0  0
   -4.0317   -0.7359    0.0000 N   0  0
   -1.2990   -0.7500    0.0000 C   0  0
    0.0000   -1.5000    0.0000 C   0  0
  1  2  1  0
  2  3  1  0
  2  4  1  0
  2  5  1  0
  5  6  2  0
  6  7  1  0
  7  8  2  0
  8  9  1  0
  9 10  1  0
 10 11  2  0
 11 12  1  0
 12 13  1  1
 13 14  2  0
 14 15  1  0
 15 16  2  0
 16 17  1  0
 17 18  2  0
 18 13  1  0
 12 19  1  0
 19 20  1  1
 20 21  2  0
 21 22  1  0
 22 23  2  0
 23 24  1  0
 24 25  2  0
 25 20  1  0
 19 26  1  0
 26 10  1  0
  8 27  1  0
 27 28  2  0
 28  5  1  0
M  END
> <Smiles>
FC(F)(F)c1ccc(CC2=N[C@H](c3ccccc3)[C@H](c3ccccc3)N2)cc1

> <ID>
CHEMBL360030

> <standard_value>
400

> <IC50_uM>
0.4

> <Activity>
Yes

> <pIC50>
6.397940009

> <BCI>
1

$$$$

  SciTegic03012415362D

 22 26  0  0  0  0            999 V2000
    2.5981   -1.5000    0.0000 O   0  0
    1.2990   -0.7500    0.0000 C   0  0
    1.2990    0.7500    0.0000 C   0  0
    2.5981    1.5000    0.0000 C   0  0
    2.5981    3.0000    0.0000 C   0  0
    1.2990    3.7500    0.0000 C   0  0
    0.0000    3.0000    0.0000 N   0  0
    0.0000    1.5000    0.0000 C   0  0
   -1.2990    0.7500    0.0000 C   0  0
   -2.5981    1.5000    0.0000 N   0  0
   -3.8971    0.7500    0.0000 C   0  0
   -3.8971   -0.7500    0.0000 C   0  0
   -2.5981   -1.5000    0.0000 C   0  0
   -1.2990   -0.7500    0.0000 C   0  0
    0.0000   -1.5000    0.0000 C   0  0
    0.0000   -3.0000    0.0000 N   0  0
   -1.2990   -3.7500    0.0000 C   0  0
   -1.2990   -5.2500    0.0000 C   0  0
   -2.5981   -6.0000    0.0000 C   0  0
   -3.8971   -5.2500    0.0000 C   0  0
   -3.8971   -3.7500    0.0000 C   0  0
   -2.5981   -3.0000    0.0000 C   0  0
  1  2  2  0
  2  3  1  0
  3  4  2  0
  4  5  1  0
  5  6  2  0
  6  7  1  0
  7  8  2  0
  8  3  1  0
  8  9  1  0
  9 10  2  0
 10 11  1  0
 11 12  2  0
 12 13  1  0
 13 14  2  0
 14  9  1  0
 14 15  1  0
 15  2  1  0
 15 16  2  0
 16 17  1  0
 17 18  2  0
 18 19  1  0
 19 20  2  0
 20 21  1  0
 21 22  2  0
 22 17  1  0
 22 13  1  0
M  END
> <Smiles>
O=C1c2cccnc2-c2nccc3c2c1nc1ccccc13

> <ID>
CHEMBL340160

> <standard_value>
500

> <IC50_uM>
0.5

> <Activity>
Yes

> <pIC50>
6.301029996

> <BCI>
1

$$$$

  SciTegic03012415362D

 26 29  0  0  1  0            999 V2000
    1.2990   -0.7500    0.0000 C   0  0
    1.2990    0.7500    0.0000 C   0  0
    0.0000    1.5000    0.0000 C   0  0
   -1.2990    0.7500    0.0000 C   0  0
   -2.6003    1.4977    0.0000 C   0  0
   -3.8990    0.7455    0.0000 C   0  0
   -5.2003    1.4932    0.0000 C   0  0
   -6.4990    0.7409    0.0000 C   0  0
   -7.8525    1.3572    0.0000 N   0  0
   -8.8524    0.2390    0.0000 C   0  0  2  0  0  0
  -10.3454    0.3907    0.0000 C   0  0
  -11.3080   -0.7532    0.0000 C   0  0
  -12.7847   -0.4897    0.0000 C   0  0
  -13.2949    0.9208    0.0000 C   0  0
  -12.3284    2.0680    0.0000 C   0  0
  -10.8517    1.8045    0.0000 C   0  0
   -8.0978   -1.0574    0.0000 C   0  0  2  0  0  0
   -8.7035   -2.4305    0.0000 C   0  0
   -7.9130   -3.6995    0.0000 C   0  0
   -8.6199   -5.0225    0.0000 C   0  0
  -10.1191   -5.0718    0.0000 C   0  0
  -10.9114   -3.7981    0.0000 C   0  0
  -10.2045   -2.4751    0.0000 C   0  0
   -6.6317   -0.7404    0.0000 N   0  0
   -1.2990   -0.7500    0.0000 C   0  0
    0.0000   -1.5000    0.0000 C   0  0
  1  2  2  0
  2  3  1  0
  3  4  2  0
  4  5  1  0
  5  6  1  0
  6  7  1  0
  7  8  1  0
  8  9  2  0
  9 10  1  0
 10 11  1  1
 11 12  2  0
 12 13  1  0
 13 14  2  0
 14 15  1  0
 15 16  2  0
 16 11  1  0
 10 17  1  0
 17 18  1  1
 18 19  2  0
 19 20  1  0
 20 21  2  0
 21 22  1  0
 22 23  2  0
 23 18  1  0
 17 24  1  0
 24  8  1  0
  4 25  1  0
 25 26  2  0
 26  1  1  0
M  END
> <Smiles>
c1ccc(CCCC2=N[C@H](c3ccccc3)[C@H](c3ccccc3)N2)cc1

> <ID>
CHEMBL362848

> <standard_value>
540

> <IC50_uM>
0.54

> <Activity>
Yes

> <pIC50>
6.26760624

> <BCI>
1

$$$$

  SciTegic03012415362D

 25 28  0  0  1  0            999 V2000
    2.5981   -1.5000    0.0000 F   0  0
    1.2990   -0.7500    0.0000 C   0  0
    1.2990    0.7500    0.0000 C   0  0
    0.0000    1.5000    0.0000 C   0  0
   -1.2990    0.7500    0.0000 C   0  0
   -1.2990   -0.7500    0.0000 C   0  0
    0.0000   -1.5000    0.0000 C   0  0
   -0.0031   -3.0008    0.0000 C   0  0
   -1.3039   -3.7494    0.0000 C   0  0
   -1.4469   -5.2298    0.0000 N   0  0
   -2.9152   -5.5365    0.0000 C   0  0  2  0  0  0
   -3.5304   -6.9054    0.0000 C   0  0
   -5.0023   -7.1671    0.0000 C   0  0
   -5.5125   -8.5777    0.0000 C   0  0
   -4.5460   -9.7248    0.0000 C   0  0
   -3.0693   -9.4613    0.0000 C   0  0
   -2.5591   -8.0508    0.0000 C   0  0
   -3.6607   -4.2349    0.0000 C   0  0  2  0  0  0
   -5.1527   -4.0728    0.0000 C   0  0
   -5.8564   -2.7538    0.0000 C   0  0
   -7.3556   -2.7045    0.0000 C   0  0
   -8.1479   -3.9782    0.0000 C   0  0
   -7.4410   -5.3012    0.0000 C   0  0
   -5.9418   -5.3505    0.0000 C   0  0
   -2.6531   -3.1237    0.0000 N   0  0
  1  2  1  0
  2  3  2  0
  3  4  1  0
  4  5  2  0
  5  6  1  0
  6  7  2  0
  7  2  1  0
  7  8  1  0
  8  9  1  0
  9 10  2  0
 10 11  1  0
 11 12  1  6
 12 13  2  0
 13 14  1  0
 14 15  2  0
 15 16  1  0
 16 17  2  0
 17 12  1  0
 11 18  1  0
 18 19  1  6
 19 20  2  0
 20 21  1  0
 21 22  2  0
 22 23  1  0
 23 24  2  0
 24 19  1  0
 18 25  1  0
 25  9  1  0
M  END
> <Smiles>
Fc1ccccc1CC1=N[C@H](c2ccccc2)[C@H](c2ccccc2)N1

> <ID>
CHEMBL369558

> <standard_value>
580

> <IC50_uM>
0.58

> <Activity>
Yes

> <pIC50>
6.236572006

> <BCI>
1

$$$$

  SciTegic03012415362D

 23 27  0  0  0  0            999 V2000
    2.5981   -1.5000    0.0000 O   0  0
    1.2990   -0.7500    0.0000 C   0  0
    1.2990    0.7500    0.0000 C   0  0
    2.5981    1.5000    0.0000 C   0  0
    2.5981    3.0000    0.0000 C   0  0
    1.2990    3.7500    0.0000 C   0  0
    0.0000    3.0000    0.0000 N   0  0
    0.0000    1.5000    0.0000 C   0  0
   -1.2990    0.7500    0.0000 C   0  0
   -2.5981    1.5000    0.0000 N   0  0
   -3.8971    0.7500    0.0000 C   0  0
   -3.8971   -0.7500    0.0000 C   0  0
   -2.5981   -1.5000    0.0000 C   0  0
   -1.2990   -0.7500    0.0000 C   0  0
    0.0000   -1.5000    0.0000 C   0  0
    0.0000   -3.0000    0.0000 N   0  0
   -1.2990   -3.7500    0.0000 C   0  0
   -1.2990   -5.2500    0.0000 C   0  0
   -2.5981   -6.0000    0.0000 C   0  0
   -3.8971   -5.2500    0.0000 C   0  0
   -5.1961   -6.0000    0.0000 Cl  0  0
   -3.8971   -3.7500    0.0000 C   0  0
   -2.5981   -3.0000    0.0000 C   0  0
  1  2  2  0
  2  3  1  0
  3  4  2  0
  4  5  1  0
  5  6  2  0
  6  7  1  0
  7  8  2  0
  8  3  1  0
  8  9  1  0
  9 10  2  0
 10 11  1  0
 11 12  2  0
 12 13  1  0
 13 14  2  0
 14  9  1  0
 14 15  1  0
 15  2  1  0
 15 16  2  0
 16 17  1  0
 17 18  2  0
 18 19  1  0
 19 20  2  0
 20 21  1  0
 20 22  1  0
 22 23  2  0
 23 17  1  0
 23 13  1  0
M  END
> <Smiles>
O=C1c2cccnc2-c2nccc3c2c1nc1ccc(Cl)cc13

> <ID>
CHEMBL121878

> <standard_value>
600

> <IC50_uM>
0.6

> <Activity>
Yes

> <pIC50>
6.22184875

> <BCI>
1

$$$$

  SciTegic03012415362D

 23 27  0  0  0  0            999 V2000
    2.5981   -1.5000    0.0000 O   0  0
    1.2990   -0.7500    0.0000 C   0  0
    1.2990    0.7500    0.0000 C   0  0
    2.5981    1.5000    0.0000 C   0  0
    2.5981    3.0000    0.0000 C   0  0
    1.2990    3.7500    0.0000 C   0  0
    0.0000    3.0000    0.0000 N   0  0
    0.0000    1.5000    0.0000 C   0  0
   -1.2990    0.7500    0.0000 C   0  0
   -2.5981    1.5000    0.0000 N   0  0
   -3.8971    0.7500    0.0000 C   0  0
   -3.8971   -0.7500    0.0000 C   0  0
   -2.5981   -1.5000    0.0000 C   0  0
   -1.2990   -0.7500    0.0000 C   0  0
    0.0000   -1.5000    0.0000 C   0  0
    0.0000   -3.0000    0.0000 N   0  0
   -1.2990   -3.7500    0.0000 C   0  0
   -1.2990   -5.2500    0.0000 C   0  0
   -2.5981   -6.0000    0.0000 C   0  0
   -2.5981   -7.5000    0.0000 Br  0  0
   -3.8971   -5.2500    0.0000 C   0  0
   -3.8971   -3.7500    0.0000 C   0  0
   -2.5981   -3.0000    0.0000 C   0  0
  1  2  2  0
  2  3  1  0
  3  4  2  0
  4  5  1  0
  5  6  2  0
  6  7  1  0
  7  8  2  0
  8  3  1  0
  8  9  1  0
  9 10  2  0
 10 11  1  0
 11 12  2  0
 12 13  1  0
 13 14  2  0
 14  9  1  0
 14 15  1  0
 15  2  1  0
 15 16  2  0
 16 17  1  0
 17 18  2  0
 18 19  1  0
 19 20  1  0
 19 21  2  0
 21 22  1  0
 22 23  2  0
 23 17  1  0
 23 13  1  0
M  END
> <Smiles>
O=C1c2cccnc2-c2nccc3c2c1nc1cc(Br)ccc13

> <ID>
CHEMBL124315

> <standard_value>
600

> <IC50_uM>
0.6

> <Activity>
Yes

> <pIC50>
6.22184875

> <BCI>
1

$$$$

  SciTegic03012415362D

 20 23  0  0  0  0            999 V2000
    3.8983   -0.7459    0.0000 C   0  0
    2.6003   -1.4977    0.0000 O   0  0
    1.2990   -0.7500    0.0000 C   0  0
    1.2990    0.7500    0.0000 C   0  0
    0.0000    1.5000    0.0000 N   0  0
   -1.2990    0.7500    0.0000 C   0  0
   -1.2990   -0.7500    0.0000 C   0  0
   -2.5981   -1.5000    0.0000 C   0  0
   -2.5981   -3.0000    0.0000 N   0  0
   -1.2990   -3.7500    0.0000 C   0  0
    0.0000   -3.0000    0.0000 C   0  0
    0.0000   -1.5000    0.0000 C   0  0
   -3.8971   -0.7500    0.0000 C   0  0
   -5.1962   -1.5000    0.0000 N   0  0
   -6.4952   -0.7500    0.0000 C   0  0
   -6.4952    0.7500    0.0000 C   0  0
   -5.1962    1.5000    0.0000 C   0  0
   -3.8971    0.7500    0.0000 C   0  0
   -2.5981    1.5000    0.0000 C   0  0
   -2.5981    3.0000    0.0000 O   0  0
  1  2  1  0
  2  3  1  0
  3  4  2  0
  4  5  1  0
  5  6  2  0
  6  7  1  0
  7  8  2  0
  8  9  1  0
  9 10  2  0
 10 11  1  0
 11 12  2  0
 12  3  1  0
 12  7  1  0
  8 13  1  0
 13 14  2  0
 14 15  1  0
 15 16  2  0
 16 17  1  0
 17 18  2  0
 18 13  1  0
 18 19  1  0
 19  6  1  0
 19 20  2  0
M  END
> <Smiles>
COc1cnc2c3c(nccc13)-c1ncccc1C2=O

> <ID>
CHEMBL118655

> <standard_value>
600

> <IC50_uM>
0.6

> <Activity>
Yes

> <pIC50>
6.22184875

> <BCI>
1

$$$$

  SciTegic03012415362D

 27 30  0  0  1  0            999 V2000
    1.2990   -0.7500    0.0000 C   0  0
    1.2990    0.7500    0.0000 C   0  0
    0.0000    1.5000    0.0000 C   0  0
   -1.2990    0.7500    0.0000 C   0  0
   -2.6003    1.4977    0.0000 C   0  0
   -3.8990    0.7455    0.0000 C   0  0
   -5.2003    1.4932    0.0000 C   0  0
   -6.4990    0.7409    0.0000 C   0  0
   -7.8003    1.4887    0.0000 C   0  0
   -9.1517    0.8676    0.0000 N   0  0
  -10.1554    1.9823    0.0000 C   0  0  2  0  0  0
  -11.6479    1.8254    0.0000 C   0  0
  -12.6145    2.9660    0.0000 C   0  0
  -14.0903    2.6974    0.0000 C   0  0
  -14.5955    1.2850    0.0000 C   0  0
  -13.6250    0.1413    0.0000 C   0  0
  -12.1493    0.4099    0.0000 C   0  0
   -9.4054    3.2814    0.0000 C   0  0  2  0  0  0
  -10.0158    4.6524    0.0000 C   0  0
   -9.2298    5.9241    0.0000 C   0  0
   -9.9413    7.2446    0.0000 C   0  0
  -11.4407    7.2887    0.0000 C   0  0
  -12.2285    6.0123    0.0000 C   0  0
  -11.5170    4.6918    0.0000 C   0  0
   -7.9382    2.9695    0.0000 N   0  0
   -1.2990   -0.7500    0.0000 C   0  0
    0.0000   -1.5000    0.0000 C   0  0
  1  2  2  0
  2  3  1  0
  3  4  2  0
  4  5  1  0
  5  6  1  0
  6  7  1  0
  7  8  1  0
  8  9  1  0
  9 10  2  0
 10 11  1  0
 11 12  1  6
 12 13  2  0
 13 14  1  0
 14 15  2  0
 15 16  1  0
 16 17  2  0
 17 12  1  0
 11 18  1  0
 18 19  1  6
 19 20  2  0
 20 21  1  0
 21 22  2  0
 22 23  1  0
 23 24  2  0
 24 19  1  0
 18 25  1  0
 25  9  1  0
  4 26  1  0
 26 27  2  0
 27  1  1  0
M  END
> <Smiles>
c1ccc(CCCCC2=N[C@H](c3ccccc3)[C@H](c3ccccc3)N2)cc1

> <ID>
CHEMBL179039

> <standard_value>
610

> <IC50_uM>
0.61

> <Activity>
Yes

> <pIC50>
6.214670165

> <BCI>
1

$$$$

  SciTegic03012415362D

 27 31  0  0  0  0            999 V2000
    3.8912   -5.2570    0.0000 C   0  0
    3.8933   -3.7570    0.0000 C   0  0
    2.5951   -3.0039    0.0000 O   0  0
    2.5973   -1.5031    0.0000 C   0  0
    3.8976   -0.7553    0.0000 O   0  0
    1.2990   -0.7500    0.0000 C   0  0
    1.2990    0.7500    0.0000 C   0  0
    0.0000    1.5000    0.0000 N   0  0
   -1.2990    0.7500    0.0000 C   0  0
   -1.2990   -0.7500    0.0000 C   0  0
    0.0000   -1.5000    0.0000 C   0  0
   -2.5981   -1.5000    0.0000 C   0  0
   -2.5981   -3.0000    0.0000 N   0  0
   -3.8971   -3.7500    0.0000 C   0  0
   -3.8971   -5.2500    0.0000 C   0  0
   -5.1961   -6.0000    0.0000 C   0  0
   -6.4952   -5.2500    0.0000 C   0  0
   -6.4952   -3.7500    0.0000 C   0  0
   -5.1961   -3.0000    0.0000 C   0  0
   -5.1961   -1.5000    0.0000 C   0  0
   -6.4952   -0.7500    0.0000 C   0  0
   -6.4952    0.7500    0.0000 C   0  0
   -5.1962    1.5000    0.0000 N   0  0
   -3.8971    0.7500    0.0000 C   0  0
   -3.8971   -0.7500    0.0000 C   0  0
   -2.5981    1.5000    0.0000 C   0  0
   -2.5981    3.0000    0.0000 O   0  0
  1  2  1  0
  2  3  1  0
  3  4  1  0
  4  5  2  0
  4  6  1  0
  6  7  2  0
  7  8  1  0
  8  9  2  0
  9 10  1  0
 10 11  2  0
 11  6  1  0
 10 12  1  0
 12 13  2  0
 13 14  1  0
 14 15  2  0
 15 16  1  0
 16 17  2  0
 17 18  1  0
 18 19  2  0
 19 14  1  0
 19 20  1  0
 20 21  2  0
 21 22  1  0
 22 23  2  0
 23 24  1  0
 24 25  2  0
 25 12  1  0
 25 20  1  0
 24 26  1  0
 26  9  1  0
 26 27  2  0
M  END
> <Smiles>
CCOC(=O)c1cnc2c(c1)-c1nc3ccccc3c3ccnc(c13)C2=O

> <ID>
CHEMBL110525

> <standard_value>
700

> <IC50_uM>
0.7

> <Activity>
Yes

> <pIC50>
6.15490196

> <BCI>
1

$$$$

  SciTegic03012415362D

 24 28  0  0  0  0            999 V2000
    3.8983   -0.7459    0.0000 C   0  0
    2.6003   -1.4977    0.0000 O   0  0
    1.2990   -0.7500    0.0000 C   0  0
    1.2990    0.7500    0.0000 C   0  0
    0.0000    1.5000    0.0000 C   0  0
   -1.2990    0.7500    0.0000 N   0  0
   -1.2990   -0.7500    0.0000 C   0  0
    0.0000   -1.5000    0.0000 C   0  0
    0.0000   -3.0000    0.0000 C   0  0
    1.2990   -3.7500    0.0000 O   0  0
   -1.2990   -3.7500    0.0000 C   0  0
   -1.2990   -5.2500    0.0000 N   0  0
   -2.5981   -6.0000    0.0000 C   0  0
   -2.5981   -7.5000    0.0000 C   0  0
   -3.8971   -8.2500    0.0000 C   0  0
   -5.1961   -7.5000    0.0000 C   0  0
   -5.1961   -6.0000    0.0000 C   0  0
   -3.8971   -5.2500    0.0000 C   0  0
   -3.8971   -3.7500    0.0000 C   0  0
   -5.1961   -3.0000    0.0000 C   0  0
   -5.1962   -1.5000    0.0000 C   0  0
   -3.8971   -0.7500    0.0000 N   0  0
   -2.5981   -1.5000    0.0000 C   0  0
   -2.5981   -3.0000    0.0000 C   0  0
  1  2  1  0
  2  3  1  0
  3  4  2  0
  4  5  1  0
  5  6  2  0
  6  7  1  0
  7  8  2  0
  8  3  1  0
  8  9  1  0
  9 10  2  0
  9 11  1  0
 11 12  2  0
 12 13  1  0
 13 14  2  0
 14 15  1  0
 15 16  2  0
 16 17  1  0
 17 18  2  0
 18 13  1  0
 18 19  1  0
 19 20  2  0
 20 21  1  0
 21 22  2  0
 22 23  1  0
 23  7  1  0
 23 24  2  0
 24 11  1  0
 24 19  1  0
M  END
> <Smiles>
COc1ccnc2c1C(=O)c1nc3ccccc3c3ccnc-2c13

> <ID>
CHEMBL121802

> <standard_value>
800

> <IC50_uM>
0.8

> <Activity>
Yes

> <pIC50>
6.096910013

> <BCI>
1

$$$$

  SciTegic03012415362D

 20 23  0  0  0  0            999 V2000
    3.8983   -0.7459    0.0000 C   0  0
    2.6003   -1.4977    0.0000 O   0  0
    1.2990   -0.7500    0.0000 C   0  0
    1.2990    0.7500    0.0000 C   0  0
    0.0000    1.5000    0.0000 C   0  0
   -1.2990    0.7500    0.0000 N   0  0
   -1.2990   -0.7500    0.0000 C   0  0
    0.0000   -1.5000    0.0000 C   0  0
    0.0000   -3.0000    0.0000 C   0  0
    1.2990   -3.7500    0.0000 O   0  0
   -1.2990   -3.7500    0.0000 C   0  0
   -1.2990   -5.2500    0.0000 N   0  0
   -2.5981   -6.0000    0.0000 C   0  0
   -3.8971   -5.2500    0.0000 C   0  0
   -3.8971   -3.7500    0.0000 C   0  0
   -5.1961   -3.0000    0.0000 C   0  0
   -5.1962   -1.5000    0.0000 C   0  0
   -3.8971   -0.7500    0.0000 N   0  0
   -2.5981   -1.5000    0.0000 C   0  0
   -2.5981   -3.0000    0.0000 C   0  0
  1  2  1  0
  2  3  1  0
  3  4  2  0
  4  5  1  0
  5  6  2  0
  6  7  1  0
  7  8  2  0
  8  3  1  0
  8  9  1  0
  9 10  2  0
  9 11  1  0
 11 12  2  0
 12 13  1  0
 13 14  2  0
 14 15  1  0
 15 16  2  0
 16 17  1  0
 17 18  2  0
 18 19  1  0
 19  7  1  0
 19 20  2  0
 20 11  1  0
 20 15  1  0
M  END
> <Smiles>
COc1ccnc2c1C(=O)c1nccc3ccnc-2c13

> <ID>
CHEMBL333433

> <standard_value>
800

> <IC50_uM>
0.8

> <Activity>
Yes

> <pIC50>
6.096910013

> <BCI>
1

$$$$

  SciTegic03012415362D

 18 21  0  0  0  0            999 V2000
    2.5981   -1.5000    0.0000 O   0  0
    1.2990   -0.7500    0.0000 C   0  0
    1.2990    0.7500    0.0000 C   0  0
    2.5981    1.5000    0.0000 C   0  0
    2.5981    3.0000    0.0000 C   0  0
    1.2990    3.7500    0.0000 C   0  0
    0.0000    3.0000    0.0000 N   0  0
    0.0000    1.5000    0.0000 C   0  0
   -1.2990    0.7500    0.0000 C   0  0
   -2.5981    1.5000    0.0000 N   0  0
   -3.8971    0.7500    0.0000 C   0  0
   -3.8971   -0.7500    0.0000 C   0  0
   -2.5981   -1.5000    0.0000 C   0  0
   -2.5981   -3.0000    0.0000 C   0  0
   -1.2990   -3.7500    0.0000 C   0  0
    0.0000   -3.0000    0.0000 N   0  0
    0.0000   -1.5000    0.0000 C   0  0
   -1.2990   -0.7500    0.0000 C   0  0
  1  2  2  0
  2  3  1  0
  3  4  2  0
  4  5  1  0
  5  6  2  0
  6  7  1  0
  7  8  2  0
  8  3  1  0
  8  9  1  0
  9 10  2  0
 10 11  1  0
 11 12  2  0
 12 13  1  0
 13 14  2  0
 14 15  1  0
 15 16  2  0
 16 17  1  0
 17  2  1  0
 17 18  2  0
 18  9  1  0
 18 13  1  0
M  END
> <Smiles>
O=C1c2cccnc2-c2nccc3ccnc1c23

> <ID>
CHEMBL325202

> <standard_value>
800

> <IC50_uM>
0.8

> <Activity>
Yes

> <pIC50>
6.096910013

> <BCI>
1

$$$$

  SciTegic03012415362D

 22 25  0  0  0  0            999 V2000
    2.5951   -3.0031    0.0000 C   0  0
    2.5973   -1.5031    0.0000 O   0  0
    1.2990   -0.7500    0.0000 C   0  0
    1.2990    0.7500    0.0000 C   0  0
    0.0000    1.5000    0.0000 C   0  0
   -1.2990    0.7500    0.0000 C   0  0
   -1.2990   -0.7500    0.0000 C   0  0
    0.0000   -1.5000    0.0000 N   0  0
   -2.5981   -1.5000    0.0000 C   0  0
   -2.5981   -3.0000    0.0000 O   0  0
   -3.8971   -0.7500    0.0000 C   0  0
   -5.1962   -1.5000    0.0000 N   0  0
   -6.4952   -0.7500    0.0000 C   0  0
   -6.4952    0.7500    0.0000 C   0  0
   -7.7965    1.4977    0.0000 O   0  0
   -9.0945    0.7459    0.0000 C   0  0
   -5.1962    1.5000    0.0000 C   0  0
   -5.1962    3.0000    0.0000 C   0  0
   -3.8971    3.7500    0.0000 C   0  0
   -2.5981    3.0000    0.0000 N   0  0
   -2.5981    1.5000    0.0000 C   0  0
   -3.8971    0.7500    0.0000 C   0  0
  1  2  1  0
  2  3  1  0
  3  4  2  0
  4  5  1  0
  5  6  2  0
  6  7  1  0
  7  8  2  0
  8  3  1  0
  7  9  1  0
  9 10  2  0
  9 11  1  0
 11 12  2  0
 12 13  1  0
 13 14  2  0
 14 15  1  0
 15 16  1  0
 14 17  1  0
 17 18  2  0
 18 19  1  0
 19 20  2  0
 20 21  1  0
 21  6  1  0
 21 22  2  0
 22 11  1  0
 22 17  1  0
M  END
> <Smiles>
COc1ccc2c(n1)C(=O)c1ncc(OC)c3ccnc-2c13

> <ID>
CHEMBL334217

> <standard_value>
800

> <IC50_uM>
0.8

> <Activity>
Yes

> <pIC50>
6.096910013

> <BCI>
1

$$$$

  SciTegic03012415362D

 27 30  0  0  1  0            999 V2000
    3.8983   -0.7459    0.0000 C   0  0
    2.6003   -1.4977    0.0000 O   0  0
    1.2990   -0.7500    0.0000 C   0  0
    1.2990    0.7500    0.0000 C   0  0
    0.0000    1.5000    0.0000 C   0  0
   -1.2990    0.7500    0.0000 C   0  0
   -1.2990   -0.7500    0.0000 C   0  0
    0.0000   -1.5000    0.0000 C   0  0
   -0.0031   -3.0008    0.0000 C   0  0
   -1.3039   -3.7494    0.0000 C   0  0
   -1.3070   -5.2502    0.0000 C   0  0
   -2.5205   -6.1100    0.0000 N   0  0
   -2.0570   -7.5366    0.0000 C   0  0  2  0  0  0
   -2.9391   -8.7508    0.0000 C   0  0
   -2.4347  -10.1581    0.0000 C   0  0
   -3.4052  -11.3019    0.0000 C   0  0
   -4.8809  -11.0333    0.0000 C   0  0
   -5.3862   -9.6209    0.0000 C   0  0
   -4.4157   -8.4772    0.0000 C   0  0
   -0.5570   -7.5366    0.0000 C   0  0  2  0  0  0
    0.3251   -8.7508    0.0000 C   0  0
    1.8195   -8.7059    0.0000 C   0  0
    2.6074   -9.9824    0.0000 C   0  0
    1.8959  -11.3029    0.0000 C   0  0
    0.3965  -11.3470    0.0000 C   0  0
   -0.3913  -10.0705    0.0000 C   0  0
   -0.0934   -6.1100    0.0000 N   0  0
  1  2  1  0
  2  3  1  0
  3  4  2  0
  4  5  1  0
  5  6  2  0
  6  7  1  0
  7  8  2  0
  8  3  1  0
  8  9  1  0
  9 10  1  0
 10 11  1  0
 11 12  2  0
 12 13  1  0
 13 14  1  1
 14 15  2  0
 15 16  1  0
 16 17  2  0
 17 18  1  0
 18 19  2  0
 19 14  1  0
 13 20  1  0
 20 21  1  1
 21 22  2  0
 22 23  1  0
 23 24  2  0
 24 25  1  0
 25 26  2  0
 26 21  1  0
 20 27  1  0
 27 11  1  0
M  END
> <Smiles>
COc1ccccc1CCC1=N[C@H](c2ccccc2)[C@H](c2ccccc2)N1

> <ID>
CHEMBL181348

> <standard_value>
830

> <IC50_uM>
0.83

> <Activity>
Yes

> <pIC50>
6.080921908

> <BCI>
1

$$$$

  SciTegic03012415362D

 30 33  0  0  0  0            999 V2000
    2.1651   -1.2500    0.0000 N   0  0
    1.2990   -0.7500    0.0000 C   0  0
    1.2990    0.7500    0.0000 C   0  0
    0.0000    1.5000    0.0000 C   0  0
   -1.2990    0.7500    0.0000 N   0  0
   -1.2990   -0.7500    0.0000 C   0  0
    0.0000   -1.5000    0.0000 C   0  0
    0.0000   -3.0000    0.0000 C   0  0
    0.8660   -3.5000    0.0000 O   0  0
   -1.2990   -3.7500    0.0000 C   0  0
   -1.2990   -5.2500    0.0000 C   0  0
    0.0007   -6.0004    0.0000 C   0  0
    1.2986   -5.2484    0.0000 C   0  0
    2.5988   -5.9963    0.0000 C   0  0
    2.6012   -7.4963    0.0000 C   0  0
    1.3034   -8.2484    0.0000 C   0  0
    0.0031   -7.5004    0.0000 C   0  0
   -1.2938   -8.2556    0.0000 N   0  0
   -1.2893   -9.7565    0.0000 C   0  0
    0.0123  -10.5021    0.0000 O   0  0
   -2.5862  -10.5117    0.0000 C   0  0
   -2.5817  -12.0117    0.0000 F   0  0
   -3.8829  -11.2658    0.0000 F   0  0
   -3.4539  -10.0146    0.0000 F   0  0
   -2.5981   -6.0000    0.0000 C   0  0
   -3.8971   -5.2500    0.0000 C   0  0
   -3.8971   -3.7500    0.0000 N   0  0
   -2.5981   -3.0000    0.0000 C   0  0
   -2.5981   -1.5000    0.0000 C   0  0
   -3.8971   -0.7500    0.0000 O   0  0
  1  2  1  0
  2  3  2  0
  3  4  1  0
  4  5  2  0
  5  6  1  0
  6  7  2  0
  7  2  1  0
  7  8  1  0
  8  9  2  0
  8 10  1  0
 10 11  2  0
 11 12  1  0
 12 13  2  0
 13 14  1  0
 14 15  2  0
 15 16  1  0
 16 17  2  0
 17 12  1  0
 17 18  1  0
 18 19  1  0
 19 20  2  0
 19 21  1  0
 21 22  1  0
 21 23  1  0
 21 24  1  0
 11 25  1  0
 25 26  2  0
 26 27  1  0
 27 28  2  0
 28 10  1  0
 28 29  1  0
 29  6  1  0
 29 30  2  0
M  END
> <Smiles>
Nc1ccnc2c1C(=O)c1c(-c3ccccc3NC(=O)C(F)(F)F)ccnc1C2=O

> <ID>
CHEMBL112938

> <standard_value>
900

> <IC50_uM>
0.9

> <Activity>
Yes

> <pIC50>
6.045757491

> <BCI>
1

$$$$

  SciTegic03012415362D

 32 35  0  0  0  0            999 V2000
    2.5981   -1.5000    0.0000 O   0  0
    1.2990   -0.7500    0.0000 C   0  0
    1.2990    0.7500    0.0000 C   0  0
    2.5981    1.5000    0.0000 N   0  0
    2.5981    3.0000    0.0000 C   0  0
    1.2990    3.7500    0.0000 C   0  0
    0.0000    3.0000    0.0000 C   0  0
   -1.2997    3.7504    0.0000 C   0  0
   -2.5977    2.9984    0.0000 C   0  0
   -3.8979    3.7463    0.0000 C   0  0
   -3.9003    5.2463    0.0000 C   0  0
   -2.6024    5.9984    0.0000 C   0  0
   -1.3022    5.2504    0.0000 C   0  0
   -0.0052    6.0056    0.0000 N   0  0
   -0.0098    7.5065    0.0000 C   0  0
   -1.3114    8.2521    0.0000 O   0  0
    1.2872    8.2617    0.0000 C   0  0
    1.2826    9.7617    0.0000 F   0  0
    2.5838    9.0158    0.0000 F   0  0
    2.5887    7.5161    0.0000 F   0  0
    0.0000    1.5000    0.0000 C   0  0
   -1.2990    0.7500    0.0000 C   0  0
   -2.5981    1.5000    0.0000 O   0  0
   -1.2990   -0.7500    0.0000 C   0  0
   -2.5981   -1.5000    0.0000 C   0  0
   -3.8994   -0.7523    0.0000 N   0  3
   -5.1973   -1.5041    0.0000 O   0  0
   -3.9020    0.7477    0.0000 O   0  5
   -2.5981   -3.0000    0.0000 C   0  0
   -1.2990   -3.7500    0.0000 C   0  0
    0.0000   -3.0000    0.0000 N   0  0
    0.0000   -1.5000    0.0000 C   0  0
  1  2  2  0
  2  3  1  0
  3  4  2  0
  4  5  1  0
  5  6  2  0
  6  7  1  0
  7  8  1  0
  8  9  2  0
  9 10  1  0
 10 11  2  0
 11 12  1  0
 12 13  2  0
 13  8  1  0
 13 14  1  0
 14 15  1  0
 15 16  2  0
 15 17  1  0
 17 18  1  0
 17 19  1  0
 17 20  1  0
  7 21  2  0
 21  3  1  0
 21 22  1  0
 22 23  2  0
 22 24  1  0
 24 25  2  0
 25 26  1  0
 26 27  2  0
 26 28  1  0
 25 29  1  0
 29 30  2  0
 30 31  1  0
 31 32  2  0
 32 24  1  0
 32  2  1  0
M  CHG  2  26   1  28  -1
M  END
> <Smiles>
O=C1c2nccc(-c3ccccc3NC(=O)C(F)(F)F)c2C(=O)c2c([N+](=O)[O-])ccnc21

> <ID>
CHEMBL111845

> <standard_value>
900

> <IC50_uM>
0.9

> <Activity>
Yes

> <pIC50>
6.045757491

> <BCI>
1

$$$$

  SciTegic03012415362D

 51 58  0  0  1  0            999 V2000
    2.5981   -1.5000    0.0000 C   0  0
    1.2990   -0.7500    0.0000 C   0  0  2  0  0  0
    1.2990    0.7500    0.0000 C   0  0
    0.0000    1.5000    0.0000 C   0  0  2  0  0  0
    0.5753    2.9306    0.0000 N   0  0
   -0.5394    3.9343    0.0000 C   0  0
   -0.3826    5.4260    0.0000 N   0  0
   -1.8384    3.1842    0.0000 C   0  0
   -1.5266    1.7170    0.0000 S   0  0
   -1.2990    0.7500    0.0000 C   0  0  3  0  0  0
   -2.5988   -0.0004    0.0000 O   0  0
   -2.5997   -1.5012    0.0000 Si  0  0
   -3.8988   -2.2513    0.0000 C   0  0
   -1.3009   -2.2517    0.0000 C   0  0
   -2.6000   -3.0012    0.0000 C   0  0
   -2.5981    1.5000    0.0000 O   0  0
   -3.8971    0.7500    0.0000 C   0  0  2  0  0  0
   -5.1962    1.5000    0.0000 C   0  0
   -6.4952    0.7500    0.0000 C   0  0  1  0  0  0
   -5.1954   -0.0004    0.0000 C   0  0
   -3.8959    0.7487    0.0000 O   0  0
   -6.4952   -0.7500    0.0000 C   0  0  1  0  0  0
   -7.7942   -1.5001    0.0000 C   0  0
   -9.0933   -0.7501    0.0000 C   0  0
   -9.0933    0.7499    0.0000 C   0  0  2  0  0  0
   -7.7943    1.4999    0.0000 C   0  0  2  0  0  0
   -7.7943    3.0000    0.0000 C   0  0
   -9.0933    3.7499    0.0000 C   0  0
  -10.3923    2.9999    0.0000 C   0  0  2  0  0  0
  -10.5474    4.4919    0.0000 C   0  0
  -11.8073    3.4634    0.0000 C   0  0  1  0  0  0
  -12.2694    4.8913    0.0000 C   0  0
  -11.4786    6.1452    0.0000 C   0  0
  -12.4521    7.2863    0.0000 C   0  0
  -12.1012    8.7447    0.0000 O   0  0
  -13.8383    6.7130    0.0000 O   0  0
  -13.7214    5.2176    0.0000 C   0  0
  -12.6890    2.2499    0.0000 C   0  0
  -11.8073    1.0364    0.0000 C   0  0
  -10.3923    1.4999    0.0000 C   0  0  2  0  0  0
  -10.4964    0.0054    0.0000 C   0  0
  -11.8441   -0.6549    0.0000 O   0  0
  -11.9471   -2.1522    0.0000 Si  0  0
  -13.2941   -2.8122    0.0000 C   0  0
  -10.7023   -2.9892    0.0000 C   0  0
  -12.0492   -3.6487    0.0000 C   0  0
   -5.1961   -1.5000    0.0000 C   0  0
   -3.8971   -0.7500    0.0000 C   0  0  1  0  0  0
   -2.5981   -1.5000    0.0000 O   0  0
   -1.2990   -0.7500    0.0000 C   0  0  2  0  0  0
    0.0000   -1.5000    0.0000 O   0  0
  2  1  1  1
  2  3  1  0
  4  3  1  1
  4  5  1  0
  5  6  2  0
  6  7  1  0
  6  8  1  0
  8  9  1  0
  9  4  1  0
  4 10  1  0
 10 11  1  4
 11 12  1  0
 12 13  1  0
 12 14  1  0
 12 15  1  0
 10 16  1  0
 17 16  1  1
 17 18  1  0
 18 19  1  0
 19 20  1  6
 20 21  1  0
 19 22  1  0
 22 23  1  6
 23 24  1  0
 25 24  1  1
 25 26  1  0
 26 19  1  0
 26 27  1  6
 27 28  1  0
 28 29  1  0
 29 30  1  6
 29 31  1  0
 31 32  1  6
 32 33  2  0
 33 34  1  0
 34 35  2  0
 34 36  1  0
 36 37  1  0
 37 32  1  0
 31 38  1  0
 38 39  1  0
 39 40  1  0
 40 25  1  0
 40 29  1  0
 40 41  1  6
 41 42  1  0
 42 43  1  0
 43 44  1  0
 43 45  1  0
 43 46  1  0
 22 47  1  0
 48 47  1  6
 48 17  1  0
 48 49  1  0
 50 49  1  1
 50 10  1  0
 50 51  1  0
 51  2  1  0
M  END
> <Smiles>
C[C@@H]1C[C@@]2(N=C(N)CS2)C2(O[Si](C)(C)C)O[C@@H]3C[C@@]4(CO)[C@@H](CC[C@@H]5[C@@H]4CC[C@]4(C)[C@@H](C6=CC(=O)OC6)CC[C@]54CO[Si](C)(C)C)C[C@H]3O[C@@H]2O1

> <ID>
CHEMBL369515

> <standard_value>
925

> <IC50_uM>
0.925

> <Activity>
Yes

> <pIC50>
6.033858267

> <BCI>
1

$$$$

  SciTegic03012415362D

 26 29  0  0  1  0            999 V2000
    2.5981   -1.5000    0.0000 F   0  0
    1.2990   -0.7500    0.0000 C   0  0
    1.2990    0.7500    0.0000 C   0  0
    0.0000    1.5000    0.0000 C   0  0
   -1.2990    0.7500    0.0000 C   0  0
   -1.2990   -0.7500    0.0000 C   0  0
   -2.6003   -1.4978    0.0000 C   0  0
   -3.8990   -0.7455    0.0000 C   0  0
   -5.2526   -1.3618    0.0000 N   0  0
   -6.2524   -0.2436    0.0000 C   0  0  2  0  0  0
   -7.7454   -0.3953    0.0000 C   0  0
   -8.7081    0.7486    0.0000 C   0  0
  -10.1848    0.4851    0.0000 C   0  0
  -10.6949   -0.9255    0.0000 C   0  0
   -9.7284   -2.0726    0.0000 C   0  0
   -8.2517   -1.8091    0.0000 C   0  0
   -5.4979    1.0528    0.0000 C   0  0  2  0  0  0
   -6.1035    2.4259    0.0000 C   0  0
   -5.3131    3.6949    0.0000 C   0  0
   -6.0200    5.0179    0.0000 C   0  0
   -7.5192    5.0672    0.0000 C   0  0
   -8.3115    3.7935    0.0000 C   0  0
   -7.6046    2.4705    0.0000 C   0  0
   -4.0317    0.7358    0.0000 N   0  0
    0.0000   -1.5000    0.0000 C   0  0
    0.0000   -3.0000    0.0000 F   0  0
  1  2  1  0
  2  3  2  0
  3  4  1  0
  4  5  2  0
  5  6  1  0
  6  7  1  0
  7  8  1  0
  8  9  2  0
  9 10  1  0
 10 11  1  6
 11 12  2  0
 12 13  1  0
 13 14  2  0
 14 15  1  0
 15 16  2  0
 16 11  1  0
 10 17  1  0
 17 18  1  6
 18 19  2  0
 19 20  1  0
 20 21  2  0
 21 22  1  0
 22 23  2  0
 23 18  1  0
 17 24  1  0
 24  8  1  0
  6 25  2  0
 25  2  1  0
 25 26  1  0
M  END
> <Smiles>
Fc1cccc(CC2=N[C@H](c3ccccc3)[C@H](c3ccccc3)N2)c1F

> <ID>
CHEMBL443827

> <standard_value>
930

> <IC50_uM>
0.93

> <Activity>
Yes

> <pIC50>
6.031517051

> <BCI>
1

$$$$

  SciTegic03012415362D

 16 18  0  0  0  0            999 V2000
    5.1065    0.0000    0.0000 C   0  0
    3.6065    0.0000    0.0000 N   0  0
    2.7248   -1.2135    0.0000 N   0  0
    1.2990   -0.7500    0.0000 C   0  0
    1.2990    0.7500    0.0000 C   0  0
    2.7248    1.2135    0.0000 N   0  0
    0.0000    1.5000    0.0000 C   0  0
    0.0000    3.0000    0.0000 O   0  0
   -1.2990    0.7500    0.0000 C   0  0
   -2.5981    1.5000    0.0000 C   0  0
   -3.8971    0.7500    0.0000 N   0  0
   -3.8971   -0.7500    0.0000 N   0  0
   -2.5981   -1.5000    0.0000 C   0  0
   -1.2990   -0.7500    0.0000 C   0  0
    0.0000   -1.5000    0.0000 C   0  0
    0.0000   -3.0000    0.0000 O   0  0
  1  2  1  0
  2  3  1  0
  3  4  2  0
  4  5  1  0
  5  6  2  0
  6  2  1  0
  5  7  1  0
  7  8  2  0
  7  9  1  0
  9 10  2  0
 10 11  1  0
 11 12  2  0
 12 13  1  0
 13 14  2  0
 14  9  1  0
 14 15  1  0
 15  4  1  0
 15 16  2  0
M  END
> <Smiles>
Cn1nc2c(n1)C(=O)c1cnncc1C2=O

> <ID>
CHEMBL259989

> <standard_value>
4

> <IC50_uM>
0.004

> <Activity>
Yes

> <pIC50>
8.397940009

> <BCI>
1

$$$$

  SciTegic03012415362D

 41 47  0  0  1  0            999 V2000
   -1.1704    3.5526    0.0000 C   0  0
    0.1377    4.2867    0.0000 C   0  0
    0.1557    5.7865    0.0000 O   0  0
    1.4280    3.5199    0.0000 O   0  0
    1.4100    2.0200    0.0000 C   0  0  3  0  0  0
    0.1000    1.2500    0.0000 C   0  0
   -1.2020    1.9949    0.0000 O   0  0
    0.1000   -0.2800    0.0000 C   0  0  2  0  0  0
   -1.1900   -1.0300    0.0000 C   0  0  1  0  0  0
   -2.5400   -0.2500    0.0000 C   0  0
   -3.8900   -1.0600    0.0000 O   0  0
   -3.8900   -2.6000    0.0000 C   0  0  3  0  0  0
   -5.1888   -3.3503    0.0000 O   0  0
   -2.5200   -3.3900    0.0000 C   0  0  1  0  0  0
   -3.9704   -3.7727    0.0000 C   0  0
   -3.3200   -4.7500    0.0000 C   0  0  2  0  0  0
   -3.8528   -6.1198    0.0000 O   0  0
   -5.3374   -6.3398    0.0000 C   0  0
   -6.2693   -5.1644    0.0000 C   0  0
   -5.8898   -7.7344    0.0000 O   0  0
   -3.3200   -1.4200    0.0000 C   0  0
   -1.1900    0.4000    0.0000 C   0  0  2  0  0  0
   -0.5622    1.7623    0.0000 O   0  0
   -1.1900   -2.6200    0.0000 C   0  0  2  0  0  0
    0.1500   -3.4200    0.0000 C   0  0
    1.4700   -2.6200    0.0000 C   0  0  1  0  0  0
    2.7722   -3.3645    0.0000 O   0  0
    1.4900   -1.0600    0.0000 C   0  0  2  0  0  0
    2.3595   -1.5540    0.0000 C   0  0
    2.6800   -0.3300    0.0000 C   0  0  1  0  0  0
    2.9200   -1.8600    0.0000 O   0  0
    4.1200   -0.8500    0.0000 C   0  0  2  0  0  0
    5.1100    0.3700    0.0000 C   0  0
    4.1500    1.6700    0.0000 C   0  0  1  0  0  0
    4.6132    3.0975    0.0000 C   0  0
    3.8213    4.3509    0.0000 C   0  0
    4.7938    5.4929    0.0000 C   0  0
    6.1805    4.9209    0.0000 O   0  0
    6.0649    3.4253    0.0000 C   0  0
    2.7000    1.2100    0.0000 C   0  0  2  0  0  0
    2.8896    2.6980    0.0000 C   0  0
  1  2  1  0
  2  3  2  0
  2  4  1  0
  5  4  1  4
  5  6  1  0
  6  7  2  0
  8  6  1  1
  8  9  1  0
  9 10  1  1
 10 11  1  0
 11 12  1  0
 12 13  1  4
 12 14  1  0
 14 15  1  1
 14 16  1  0
 16 17  1  6
 17 18  1  0
 18 19  1  0
 18 20  2  0
 16 21  1  0
 21 22  1  0
 22  9  1  0
 22 23  1  6
 14 24  1  0
 24  9  1  0
 24 25  1  1
 25 26  1  0
 26 27  1  6
 26 28  1  0
 28  8  1  0
 28 29  1  1
 28 30  1  0
 30 31  1  1
 32 31  1  1
 32 30  1  0
 32 33  1  0
 33 34  1  0
 34 35  1  6
 35 36  1  0
 36 37  2  0
 37 38  1  0
 38 39  1  0
 39 35  2  0
 34 40  1  0
 40  5  1  0
 40 30  1  0
 40 41  1  6
M  END
> <Smiles>
CC(=O)OC1C(=O)[C@@H]2[C@@]34COC(O)[C@@](C)([C@H](OC(C)=O)C[C@@H]3O)[C@@H]4C[C@@H](O)[C@@]2(C)[C@@]23O[C@@H]2C[C@@H](c2ccoc2)[C@]13C

> <ID>
CHEMBL4789549

> <standard_value>
12

> <IC50_uM>
0.012

> <Activity>
Yes

> <pIC50>
7.920818754

> <BCI>
1

$$$$

  SciTegic03012415362D

 22 25  0  0  0  0            999 V2000
    2.5981   -1.5000    0.0000 C   0  0
    1.2990   -0.7500    0.0000 C   0  0
    1.2990    0.7500    0.0000 C   0  0
    0.0000    1.5000    0.0000 C   0  0
   -1.2990    0.7500    0.0000 C   0  0
   -2.5981    1.5000    0.0000 N   0  0
   -3.8971    0.7500    0.0000 C   0  0
   -3.8971   -0.7500    0.0000 C   0  0
   -2.5981   -1.5000    0.0000 N   0  0
   -1.2990   -0.7500    0.0000 C   0  0
    0.0000   -1.5000    0.0000 C   0  0
    0.0000   -3.0000    0.0000 C   0  0
   -5.1961   -1.5000    0.0000 C   0  0
   -5.1961   -3.0000    0.0000 O   0  0
   -6.4952   -0.7500    0.0000 C   0  0
   -7.7942   -1.5000    0.0000 C   0  0
   -9.0933   -0.7500    0.0000 N   0  0
   -9.0933    0.7500    0.0000 N   0  0
   -7.7942    1.5000    0.0000 C   0  0
   -6.4952    0.7500    0.0000 C   0  0
   -5.1962    1.5000    0.0000 C   0  0
   -5.1962    3.0000    0.0000 O   0  0
  1  2  1  0
  2  3  2  0
  3  4  1  0
  4  5  2  0
  5  6  1  0
  6  7  2  0
  7  8  1  0
  8  9  2  0
  9 10  1  0
 10  5  1  0
 10 11  2  0
 11  2  1  0
 11 12  1  0
  8 13  1  0
 13 14  2  0
 13 15  1  0
 15 16  2  0
 16 17  1  0
 17 18  2  0
 18 19  1  0
 19 20  2  0
 20 15  1  0
 20 21  1  0
 21  7  1  0
 21 22  2  0
M  END
> <Smiles>
Cc1ccc2nc3c(nc2c1C)C(=O)c1cnncc1C3=O

> <ID>
CHEMBL229726

> <standard_value>
13

> <IC50_uM>
0.013

> <Activity>
Yes

> <pIC50>
7.886056648

> <BCI>
1

$$$$

  SciTegic03012415362D

 22 25  0  0  0  0            999 V2000
    3.8983   -0.7459    0.0000 C   0  0
    2.6003   -1.4977    0.0000 C   0  0
    1.2990   -0.7500    0.0000 C   0  0
    1.2990    0.7500    0.0000 C   0  0
    0.0000    1.5000    0.0000 C   0  0
   -1.2990    0.7500    0.0000 C   0  0
   -1.2990   -0.7500    0.0000 C   0  0
   -2.5981   -1.5000    0.0000 N   0  0
   -2.5981   -3.0000    0.0000 C   0  0
   -1.2990   -3.7500    0.0000 C   0  0
    0.0000   -3.0000    0.0000 N   0  0
    0.0000   -1.5000    0.0000 C   0  0
   -1.2990   -5.2500    0.0000 C   0  0
    0.0000   -6.0000    0.0000 O   0  0
   -2.5981   -6.0000    0.0000 C   0  0
   -2.5980   -7.5000    0.0000 C   0  0
   -3.8971   -8.2500    0.0000 N   0  0
   -5.1961   -7.5000    0.0000 N   0  0
   -5.1961   -6.0000    0.0000 C   0  0
   -3.8971   -5.2500    0.0000 C   0  0
   -3.8971   -3.7500    0.0000 C   0  0
   -5.1961   -3.0000    0.0000 O   0  0
  1  2  1  0
  2  3  1  0
  3  4  2  0
  4  5  1  0
  5  6  2  0
  6  7  1  0
  7  8  2  0
  8  9  1  0
  9 10  2  0
 10 11  1  0
 11 12  2  0
 12  3  1  0
 12  7  1  0
 10 13  1  0
 13 14  2  0
 13 15  1  0
 15 16  2  0
 16 17  1  0
 17 18  2  0
 18 19  1  0
 19 20  2  0
 20 15  1  0
 20 21  1  0
 21  9  1  0
 21 22  2  0
M  END
> <Smiles>
CCc1cccc2nc3c(nc12)C(=O)c1cnncc1C3=O

> <ID>
CHEMBL229678

> <standard_value>
13

> <IC50_uM>
0.013

> <Activity>
Yes

> <pIC50>
7.886056648

> <BCI>
1

$$$$

  SciTegic03012415362D

 18 20  0  0  0  0            999 V2000
    5.8528    1.3033    0.0000 C   0  0
    5.1047    0.0031    0.0000 C   0  0
    5.8570   -1.2946    0.0000 C   0  0
    3.6065    0.0000    0.0000 N   0  0
    2.7248   -1.2135    0.0000 N   0  0
    1.2990   -0.7500    0.0000 C   0  0
    1.2990    0.7500    0.0000 C   0  0
    2.7248    1.2135    0.0000 N   0  0
    0.0000    1.5000    0.0000 C   0  0
    0.0000    3.0000    0.0000 O   0  0
   -1.2990    0.7500    0.0000 C   0  0
   -2.5981    1.5000    0.0000 C   0  0
   -3.8971    0.7500    0.0000 N   0  0
   -3.8971   -0.7500    0.0000 N   0  0
   -2.5981   -1.5000    0.0000 C   0  0
   -1.2990   -0.7500    0.0000 C   0  0
    0.0000   -1.5000    0.0000 C   0  0
    0.0000   -3.0000    0.0000 O   0  0
  1  2  1  0
  2  3  1  0
  2  4  1  0
  4  5  1  0
  5  6  2  0
  6  7  1  0
  7  8  2  0
  8  4  1  0
  7  9  1  0
  9 10  2  0
  9 11  1  0
 11 12  2  0
 12 13  1  0
 13 14  2  0
 14 15  1  0
 15 16  2  0
 16 11  1  0
 16 17  1  0
 17  6  1  0
 17 18  2  0
M  END
> <Smiles>
CC(C)n1nc2c(n1)C(=O)c1cnncc1C2=O

> <ID>
CHEMBL261342

> <standard_value>
14

> <IC50_uM>
0.014

> <Activity>
Yes

> <pIC50>
7.853871964

> <BCI>
1

$$$$

  SciTegic03012415362D

 17 19  0  0  0  0            999 V2000
    5.8528    1.3033    0.0000 C   0  0
    5.1047    0.0031    0.0000 C   0  0
    3.6065    0.0000    0.0000 N   0  0
    2.7248   -1.2135    0.0000 N   0  0
    1.2990   -0.7500    0.0000 C   0  0
    1.2990    0.7500    0.0000 C   0  0
    2.7248    1.2135    0.0000 N   0  0
    0.0000    1.5000    0.0000 C   0  0
    0.0000    3.0000    0.0000 O   0  0
   -1.2990    0.7500    0.0000 C   0  0
   -2.5981    1.5000    0.0000 C   0  0
   -3.8971    0.7500    0.0000 N   0  0
   -3.8971   -0.7500    0.0000 N   0  0
   -2.5981   -1.5000    0.0000 C   0  0
   -1.2990   -0.7500    0.0000 C   0  0
    0.0000   -1.5000    0.0000 C   0  0
    0.0000   -3.0000    0.0000 O   0  0
  1  2  1  0
  2  3  1  0
  3  4  1  0
  4  5  2  0
  5  6  1  0
  6  7  2  0
  7  3  1  0
  6  8  1  0
  8  9  2  0
  8 10  1  0
 10 11  2  0
 11 12  1  0
 12 13  2  0
 13 14  1  0
 14 15  2  0
 15 10  1  0
 15 16  1  0
 16  5  1  0
 16 17  2  0
M  END
> <Smiles>
CCn1nc2c(n1)C(=O)c1cnncc1C2=O

> <ID>
CHEMBL261876

> <standard_value>
17

> <IC50_uM>
0.017

> <Activity>
Yes

> <pIC50>
7.769551079

> <BCI>
1

$$$$

  SciTegic03012415362D

 18 20  0  0  0  0            999 V2000
    7.3532    1.3071    0.0000 C   0  0
    5.8532    1.3040    0.0000 C   0  0
    5.1047    0.0031    0.0000 C   0  0
    3.6065    0.0000    0.0000 N   0  0
    2.7248   -1.2135    0.0000 N   0  0
    1.2990   -0.7500    0.0000 C   0  0
    1.2990    0.7500    0.0000 C   0  0
    2.7248    1.2135    0.0000 N   0  0
    0.0000    1.5000    0.0000 C   0  0
    0.0000    3.0000    0.0000 O   0  0
   -1.2990    0.7500    0.0000 C   0  0
   -2.5981    1.5000    0.0000 C   0  0
   -3.8971    0.7500    0.0000 N   0  0
   -3.8971   -0.7500    0.0000 N   0  0
   -2.5981   -1.5000    0.0000 C   0  0
   -1.2990   -0.7500    0.0000 C   0  0
    0.0000   -1.5000    0.0000 C   0  0
    0.0000   -3.0000    0.0000 O   0  0
  1  2  1  0
  2  3  1  0
  3  4  1  0
  4  5  1  0
  5  6  2  0
  6  7  1  0
  7  8  2  0
  8  4  1  0
  7  9  1  0
  9 10  2  0
  9 11  1  0
 11 12  2  0
 12 13  1  0
 13 14  2  0
 14 15  1  0
 15 16  2  0
 16 11  1  0
 16 17  1  0
 17  6  1  0
 17 18  2  0
M  END
> <Smiles>
CCCn1nc2c(n1)C(=O)c1cnncc1C2=O

> <ID>
CHEMBL261330

> <standard_value>
18

> <IC50_uM>
0.018

> <Activity>
Yes

> <pIC50>
7.744727495

> <BCI>
1

$$$$

  SciTegic03012415362D

 19 21  0  0  0  0            999 V2000
    7.3532    1.3071    0.0000 C   0  0
    5.8532    1.3040    0.0000 C   0  0
    5.1009    2.6017    0.0000 C   0  0
    5.1047    0.0031    0.0000 C   0  0
    3.6065    0.0000    0.0000 N   0  0
    2.7248   -1.2135    0.0000 N   0  0
    1.2990   -0.7500    0.0000 C   0  0
    1.2990    0.7500    0.0000 C   0  0
    2.7248    1.2135    0.0000 N   0  0
    0.0000    1.5000    0.0000 C   0  0
    0.0000    3.0000    0.0000 O   0  0
   -1.2990    0.7500    0.0000 C   0  0
   -2.5981    1.5000    0.0000 C   0  0
   -3.8971    0.7500    0.0000 N   0  0
   -3.8971   -0.7500    0.0000 N   0  0
   -2.5981   -1.5000    0.0000 C   0  0
   -1.2990   -0.7500    0.0000 C   0  0
    0.0000   -1.5000    0.0000 C   0  0
    0.0000   -3.0000    0.0000 O   0  0
  1  2  1  0
  2  3  1  0
  2  4  1  0
  4  5  1  0
  5  6  1  0
  6  7  2  0
  7  8  1  0
  8  9  2  0
  9  5  1  0
  8 10  1  0
 10 11  2  0
 10 12  1  0
 12 13  2  0
 13 14  1  0
 14 15  2  0
 15 16  1  0
 16 17  2  0
 17 12  1  0
 17 18  1  0
 18  7  1  0
 18 19  2  0
M  END
> <Smiles>
CC(C)Cn1nc2c(n1)C(=O)c1cnncc1C2=O

> <ID>
CHEMBL261294

> <standard_value>
19

> <IC50_uM>
0.019

> <Activity>
Yes

> <pIC50>
7.721246399

> <BCI>
1

$$$$

  SciTegic03012415362D

 19 21  0  0  0  0            999 V2000
    8.1022    2.6072    0.0000 C   0  0
    7.3541    1.3071    0.0000 C   0  0
    5.8532    1.3040    0.0000 C   0  0
    5.1047    0.0031    0.0000 C   0  0
    3.6065    0.0000    0.0000 N   0  0
    2.7248   -1.2135    0.0000 N   0  0
    1.2990   -0.7500    0.0000 C   0  0
    1.2990    0.7500    0.0000 C   0  0
    2.7248    1.2135    0.0000 N   0  0
    0.0000    1.5000    0.0000 C   0  0
    0.0000    3.0000    0.0000 O   0  0
   -1.2990    0.7500    0.0000 C   0  0
   -2.5981    1.5000    0.0000 C   0  0
   -3.8971    0.7500    0.0000 N   0  0
   -3.8971   -0.7500    0.0000 N   0  0
   -2.5981   -1.5000    0.0000 C   0  0
   -1.2990   -0.7500    0.0000 C   0  0
    0.0000   -1.5000    0.0000 C   0  0
    0.0000   -3.0000    0.0000 O   0  0
  1  2  1  0
  2  3  1  0
  3  4  1  0
  4  5  1  0
  5  6  1  0
  6  7  2  0
  7  8  1  0
  8  9  2  0
  9  5  1  0
  8 10  1  0
 10 11  2  0
 10 12  1  0
 12 13  2  0
 13 14  1  0
 14 15  2  0
 15 16  1  0
 16 17  2  0
 17 12  1  0
 17 18  1  0
 18  7  1  0
 18 19  2  0
M  END
> <Smiles>
CCCCn1nc2c(n1)C(=O)c1cnncc1C2=O

> <ID>
CHEMBL260223

> <standard_value>
19

> <IC50_uM>
0.019

> <Activity>
Yes

> <pIC50>
7.721246399

> <BCI>
1

$$$$

  SciTegic03012415362D

 21 24  0  0  0  0            999 V2000
    2.5981   -1.5000    0.0000 C   0  0
    1.2990   -0.7500    0.0000 C   0  0
    1.2990    0.7500    0.0000 C   0  0
    0.0000    1.5000    0.0000 C   0  0
   -1.2990    0.7500    0.0000 C   0  0
   -1.2990   -0.7500    0.0000 C   0  0
   -2.5981   -1.5000    0.0000 N   0  0
   -2.5981   -3.0000    0.0000 C   0  0
   -1.2990   -3.7500    0.0000 C   0  0
    0.0000   -3.0000    0.0000 N   0  0
    0.0000   -1.5000    0.0000 C   0  0
   -1.2990   -5.2500    0.0000 C   0  0
    0.0000   -6.0000    0.0000 O   0  0
   -2.5981   -6.0000    0.0000 C   0  0
   -2.5980   -7.5000    0.0000 C   0  0
   -3.8971   -8.2500    0.0000 N   0  0
   -5.1961   -7.5000    0.0000 N   0  0
   -5.1961   -6.0000    0.0000 C   0  0
   -3.8971   -5.2500    0.0000 C   0  0
   -3.8971   -3.7500    0.0000 C   0  0
   -5.1961   -3.0000    0.0000 O   0  0
  1  2  1  0
  2  3  2  0
  3  4  1  0
  4  5  2  0
  5  6  1  0
  6  7  2  0
  7  8  1  0
  8  9  2  0
  9 10  1  0
 10 11  2  0
 11  2  1  0
 11  6  1  0
  9 12  1  0
 12 13  2  0
 12 14  1  0
 14 15  2  0
 15 16  1  0
 16 17  2  0
 17 18  1  0
 18 19  2  0
 19 14  1  0
 19 20  1  0
 20  8  1  0
 20 21  2  0
M  END
> <Smiles>
Cc1cccc2nc3c(nc12)C(=O)c1cnncc1C3=O

> <ID>
CHEMBL388108

> <standard_value>
21

> <IC50_uM>
0.021

> <Activity>
Yes

> <pIC50>
7.677780705

> <BCI>
1

$$$$

  SciTegic03012415362D

 24 27  0  0  0  0            999 V2000
    2.5951   -3.0031    0.0000 C   0  0
    2.5973   -1.5031    0.0000 O   0  0
    1.2990   -0.7500    0.0000 C   0  0
    1.2990    0.7500    0.0000 C   0  0
    0.0000    1.5000    0.0000 C   0  0
    0.0031    3.0008    0.0000 O   0  0
    1.3032    3.7490    0.0000 C   0  0
   -1.2990    0.7500    0.0000 C   0  0
   -2.5981    1.5000    0.0000 N   0  0
   -3.8971    0.7500    0.0000 C   0  0
   -3.8971   -0.7500    0.0000 C   0  0
   -2.5981   -1.5000    0.0000 N   0  0
   -1.2990   -0.7500    0.0000 C   0  0
    0.0000   -1.5000    0.0000 C   0  0
   -5.1961   -1.5000    0.0000 C   0  0
   -5.1961   -3.0000    0.0000 O   0  0
   -6.4952   -0.7500    0.0000 C   0  0
   -7.7942   -1.5000    0.0000 C   0  0
   -9.0933   -0.7500    0.0000 N   0  0
   -9.0933    0.7500    0.0000 N   0  0
   -7.7942    1.5000    0.0000 C   0  0
   -6.4952    0.7500    0.0000 C   0  0
   -5.1962    1.5000    0.0000 C   0  0
   -5.1962    3.0000    0.0000 O   0  0
  1  2  1  0
  2  3  1  0
  3  4  2  0
  4  5  1  0
  5  6  1  0
  6  7  1  0
  5  8  2  0
  8  9  1  0
  9 10  2  0
 10 11  1  0
 11 12  2  0
 12 13  1  0
 13  8  1  0
 13 14  2  0
 14  3  1  0
 11 15  1  0
 15 16  2  0
 15 17  1  0
 17 18  2  0
 18 19  1  0
 19 20  2  0
 20 21  1  0
 21 22  2  0
 22 17  1  0
 22 23  1  0
 23 10  1  0
 23 24  2  0
M  END
> <Smiles>
COc1cc(OC)c2nc3c(nc2c1)C(=O)c1cnncc1C3=O

> <ID>
CHEMBL229727

> <standard_value>
33

> <IC50_uM>
0.033

> <Activity>
Yes

> <pIC50>
7.48148606

> <BCI>
1

$$$$

  SciTegic03012415362D

 16 18  0  0  0  0            999 V2000
    3.1882    2.6402    0.0000 C   0  0
    2.7248    1.2135    0.0000 N   0  0
    3.6065    0.0000    0.0000 N   0  0
    2.7248   -1.2135    0.0000 N   0  0
    1.2990   -0.7500    0.0000 C   0  0
    1.2990    0.7500    0.0000 C   0  0
    0.0000    1.5000    0.0000 C   0  0
    0.0000    3.0000    0.0000 O   0  0
   -1.2990    0.7500    0.0000 C   0  0
   -2.5981    1.5000    0.0000 C   0  0
   -3.8971    0.7500    0.0000 N   0  0
   -3.8971   -0.7500    0.0000 N   0  0
   -2.5981   -1.5000    0.0000 C   0  0
   -1.2990   -0.7500    0.0000 C   0  0
    0.0000   -1.5000    0.0000 C   0  0
    0.0000   -3.0000    0.0000 O   0  0
  1  2  1  0
  2  3  1  0
  3  4  2  0
  4  5  1  0
  5  6  2  0
  6  2  1  0
  6  7  1  0
  7  8  2  0
  7  9  1  0
  9 10  2  0
 10 11  1  0
 11 12  2  0
 12 13  1  0
 13 14  2  0
 14  9  1  0
 14 15  1  0
 15  5  1  0
 15 16  2  0
M  END
> <Smiles>
Cn1nnc2c1C(=O)c1cnncc1C2=O

> <ID>
CHEMBL259778

> <standard_value>
35

> <IC50_uM>
0.035

> <Activity>
Yes

> <pIC50>
7.455931956

> <BCI>
1

$$$$

  SciTegic03012415362D

 38 44  0  0  1  0            999 V2000
   -6.4760   -1.0771    0.0000 C   0  0
   -6.4892   -2.5770    0.0000 C   0  0
   -7.7951   -3.3151    0.0000 O   0  0
   -5.1959   -3.3384    0.0000 O   0  0
   -3.8900   -2.6000    0.0000 C   0  0  2  0  0  0
   -3.8900   -1.0600    0.0000 C   0  0
   -2.5400   -0.2500    0.0000 C   0  0  2  0  0  0
   -2.5524    1.2499    0.0000 O   0  0
   -1.1900   -1.0300    0.0000 C   0  0  1  0  0  0
   -1.1900    0.4000    0.0000 C   0  0
   -3.3200   -1.4200    0.0000 O   0  0
   -3.3200   -4.7500    0.0000 C   0  0  3  0  0  0
   -3.7141   -6.1973    0.0000 O   0  0
   -2.5200   -3.3900    0.0000 C   0  0  1  0  0  0
   -3.9704   -3.7727    0.0000 C   0  0
   -1.1900   -2.6200    0.0000 C   0  0  2  0  0  0
    0.1500   -3.4200    0.0000 C   0  0
    1.4700   -2.6200    0.0000 C   0  0  1  0  0  0
    2.7722   -3.3645    0.0000 O   0  0
    1.4900   -1.0600    0.0000 C   0  0  2  0  0  0
    2.3595   -1.5540    0.0000 C   0  0
    0.1000   -0.2800    0.0000 C   0  0  2  0  0  0
    0.1000    1.2500    0.0000 C   0  0
   -1.2020    1.9949    0.0000 O   0  0
    1.4100    2.0200    0.0000 C   0  0  3  0  0  0
    1.4320    3.5198    0.0000 O   0  0
    2.7000    1.2100    0.0000 C   0  0  1  0  0  0
    2.8896    2.6980    0.0000 C   0  0
    4.1500    1.6700    0.0000 C   0  0  2  0  0  0
    4.6132    3.0975    0.0000 C   0  0
    5.9924    3.6420    0.0000 C   0  0
    5.8812    5.1379    0.0000 C   0  0
    4.4242    5.4944    0.0000 O   0  0
    3.6349    4.2188    0.0000 C   0  0
    5.1100    0.3700    0.0000 C   0  0
    4.1200   -0.8500    0.0000 C   0  0  1  0  0  0
    2.9200   -1.8600    0.0000 O   0  0
    2.6800   -0.3300    0.0000 C   0  0  2  0  0  0
  1  2  1  0
  2  3  2  0
  2  4  1  0
  5  4  1  6
  5  6  1  0
  6  7  1  0
  7  8  1  6
  7  9  1  0
  9 10  1  1
 10 11  1  0
 11 12  1  0
 12 13  1  4
 12 14  1  0
 14  5  1  0
 14 15  1  6
 14 16  1  0
 16  9  1  0
 16 17  1  1
 17 18  1  0
 18 19  1  6
 18 20  1  0
 20 21  1  1
 20 22  1  0
 22  9  1  0
 22 23  1  1
 23 24  2  0
 23 25  1  0
 25 26  1  4
 25 27  1  0
 27 28  1  6
 27 29  1  0
 29 30  1  6
 30 31  1  0
 31 32  2  0
 32 33  1  0
 33 34  1  0
 34 30  2  0
 29 35  1  0
 36 35  1  1
 36 37  1  0
 38 37  1  1
 38 36  1  0
 38 20  1  0
 38 27  1  0
M  END
> <Smiles>
CC(=O)O[C@@H]1C[C@H](O)[C@@]23COC(O)[C@]1(C)[C@@H]2C[C@@H](O)[C@]1(C)[C@@H]3C(=O)C(O)[C@@]2(C)[C@H](c3ccoc3)C[C@H]3O[C@@]312

> <ID>
CHEMBL4763211

> <standard_value>
38

> <IC50_uM>
0.038

> <Activity>
Yes

> <pIC50>
7.420216403

> <BCI>
1

$$$$

  SciTegic03012415362D

 18 20  0  0  0  0            999 V2000
    4.6580    2.9476    0.0000 C   0  0
    3.1904    2.6376    0.0000 C   0  0
    2.1885    3.7539    0.0000 C   0  0
    2.7248    1.2135    0.0000 N   0  0
    3.6065    0.0000    0.0000 N   0  0
    2.7248   -1.2135    0.0000 N   0  0
    1.2990   -0.7500    0.0000 C   0  0
    1.2990    0.7500    0.0000 C   0  0
    0.0000    1.5000    0.0000 C   0  0
    0.0000    3.0000    0.0000 O   0  0
   -1.2990    0.7500    0.0000 C   0  0
   -2.5981    1.5000    0.0000 C   0  0
   -3.8971    0.7500    0.0000 N   0  0
   -3.8971   -0.7500    0.0000 N   0  0
   -2.5981   -1.5000    0.0000 C   0  0
   -1.2990   -0.7500    0.0000 C   0  0
    0.0000   -1.5000    0.0000 C   0  0
    0.0000   -3.0000    0.0000 O   0  0
  1  2  1  0
  2  3  1  0
  2  4  1  0
  4  5  1  0
  5  6  2  0
  6  7  1  0
  7  8  2  0
  8  4  1  0
  8  9  1  0
  9 10  2  0
  9 11  1  0
 11 12  2  0
 12 13  1  0
 13 14  2  0
 14 15  1  0
 15 16  2  0
 16 11  1  0
 16 17  1  0
 17  7  1  0
 17 18  2  0
M  END
> <Smiles>
CC(C)n1nnc2c1C(=O)c1cnncc1C2=O

> <ID>
CHEMBL260224

> <standard_value>
49

> <IC50_uM>
0.049

> <Activity>
Yes

> <pIC50>
7.30980392

> <BCI>
1

$$$$

  SciTegic03012415362D

 22 25  0  0  0  0            999 V2000
    3.8983   -0.7459    0.0000 C   0  0
    2.6003   -1.4977    0.0000 O   0  0
    1.2990   -0.7500    0.0000 C   0  0
    1.2990    0.7500    0.0000 C   0  0
    0.0000    1.5000    0.0000 C   0  0
   -1.2990    0.7500    0.0000 C   0  0
   -1.2990   -0.7500    0.0000 C   0  0
   -2.5981   -1.5000    0.0000 N   0  0
   -2.5981   -3.0000    0.0000 C   0  0
   -1.2990   -3.7500    0.0000 C   0  0
    0.0000   -3.0000    0.0000 N   0  0
    0.0000   -1.5000    0.0000 C   0  0
   -1.2990   -5.2500    0.0000 C   0  0
    0.0000   -6.0000    0.0000 O   0  0
   -2.5981   -6.0000    0.0000 C   0  0
   -2.5980   -7.5000    0.0000 C   0  0
   -3.8971   -8.2500    0.0000 N   0  0
   -5.1961   -7.5000    0.0000 N   0  0
   -5.1961   -6.0000    0.0000 C   0  0
   -3.8971   -5.2500    0.0000 C   0  0
   -3.8971   -3.7500    0.0000 C   0  0
   -5.1961   -3.0000    0.0000 O   0  0
  1  2  1  0
  2  3  1  0
  3  4  2  0
  4  5  1  0
  5  6  2  0
  6  7  1  0
  7  8  2  0
  8  9  1  0
  9 10  2  0
 10 11  1  0
 11 12  2  0
 12  3  1  0
 12  7  1  0
 10 13  1  0
 13 14  2  0
 13 15  1  0
 15 16  2  0
 16 17  1  0
 17 18  2  0
 18 19  1  0
 19 20  2  0
 20 15  1  0
 20 21  1  0
 21  9  1  0
 21 22  2  0
M  END
> <Smiles>
COc1cccc2nc3c(nc12)C(=O)c1cnncc1C3=O

> <ID>
CHEMBL229677

> <standard_value>
65

> <IC50_uM>
0.065

> <Activity>
Yes

> <pIC50>
7.187086643

> <BCI>
1

$$$$

  SciTegic03012415362D

 23 26  0  0  0  0            999 V2000
    2.5951   -3.0031    0.0000 C   0  0
    2.5973   -1.5031    0.0000 N   0  0
    3.8976   -0.7553    0.0000 C   0  0
    1.2990   -0.7500    0.0000 C   0  0
    1.2990    0.7500    0.0000 C   0  0
    0.0000    1.5000    0.0000 C   0  0
   -1.2990    0.7500    0.0000 C   0  0
   -2.5981    1.5000    0.0000 N   0  0
   -3.8971    0.7500    0.0000 C   0  0
   -3.8971   -0.7500    0.0000 C   0  0
   -2.5981   -1.5000    0.0000 N   0  0
   -1.2990   -0.7500    0.0000 C   0  0
    0.0000   -1.5000    0.0000 C   0  0
   -5.1961   -1.5000    0.0000 C   0  0
   -5.1961   -3.0000    0.0000 O   0  0
   -6.4952   -0.7500    0.0000 C   0  0
   -7.7942   -1.5000    0.0000 C   0  0
   -9.0933   -0.7500    0.0000 N   0  0
   -9.0933    0.7500    0.0000 N   0  0
   -7.7942    1.5000    0.0000 C   0  0
   -6.4952    0.7500    0.0000 C   0  0
   -5.1962    1.5000    0.0000 C   0  0
   -5.1962    3.0000    0.0000 O   0  0
  1  2  1  0
  2  3  1  0
  2  4  1  0
  4  5  2  0
  5  6  1  0
  6  7  2  0
  7  8  1  0
  8  9  2  0
  9 10  1  0
 10 11  2  0
 11 12  1  0
 12  7  1  0
 12 13  2  0
 13  4  1  0
 10 14  1  0
 14 15  2  0
 14 16  1  0
 16 17  2  0
 17 18  1  0
 18 19  2  0
 19 20  1  0
 20 21  2  0
 21 16  1  0
 21 22  1  0
 22  9  1  0
 22 23  2  0
M  END
> <Smiles>
CN(C)c1ccc2nc3c(nc2c1)C(=O)c1cnncc1C3=O

> <ID>
CHEMBL229725

> <standard_value>
70

> <IC50_uM>
0.07

> <Activity>
Yes

> <pIC50>
7.15490196

> <BCI>
1

$$$$

  SciTegic03012415362D

 18 20  0  0  0  0            999 V2000
    5.1250    4.3735    0.0000 C   0  0
    4.6588    2.9478    0.0000 C   0  0
    3.1904    2.6376    0.0000 C   0  0
    2.7248    1.2135    0.0000 N   0  0
    3.6065    0.0000    0.0000 N   0  0
    2.7248   -1.2135    0.0000 N   0  0
    1.2990   -0.7500    0.0000 C   0  0
    1.2990    0.7500    0.0000 C   0  0
    0.0000    1.5000    0.0000 C   0  0
    0.0000    3.0000    0.0000 O   0  0
   -1.2990    0.7500    0.0000 C   0  0
   -2.5981    1.5000    0.0000 C   0  0
   -3.8971    0.7500    0.0000 N   0  0
   -3.8971   -0.7500    0.0000 N   0  0
   -2.5981   -1.5000    0.0000 C   0  0
   -1.2990   -0.7500    0.0000 C   0  0
    0.0000   -1.5000    0.0000 C   0  0
    0.0000   -3.0000    0.0000 O   0  0
  1  2  1  0
  2  3  1  0
  3  4  1  0
  4  5  1  0
  5  6  2  0
  6  7  1  0
  7  8  2  0
  8  4  1  0
  8  9  1  0
  9 10  2  0
  9 11  1  0
 11 12  2  0
 12 13  1  0
 13 14  2  0
 14 15  1  0
 15 16  2  0
 16 11  1  0
 16 17  1  0
 17  7  1  0
 17 18  2  0
M  END
> <Smiles>
CCCn1nnc2c1C(=O)c1cnncc1C2=O

> <ID>
CHEMBL258925

> <standard_value>
85

> <IC50_uM>
0.085

> <Activity>
Yes

> <pIC50>
7.070581074

> <BCI>
1

$$$$

  SciTegic03012415362D

 20 23  0  0  0  0            999 V2000
    2.5981   -1.5000    0.0000 C   0  0
    1.2990   -0.7500    0.0000 C   0  0
    1.2990    0.7500    0.0000 C   0  0
    0.0000    1.5000    0.0000 C   0  0
   -1.2990    0.7500    0.0000 C   0  0
   -1.2990   -0.7500    0.0000 N   0  0
   -2.4133   -1.7530    0.0000 C   0  0
   -1.8032   -3.1233    0.0000 C   0  0
   -0.3114   -2.9665    0.0000 N   0  0
    0.0000   -1.5000    0.0000 C   0  0
   -2.6837   -4.3363    0.0000 C   0  0
   -2.0736   -5.7066    0.0000 N   0  0
   -2.9553   -6.9202    0.0000 C   0  0
   -4.4471   -6.7634    0.0000 C   0  0
   -5.0572   -5.3931    0.0000 C   0  0
   -4.1755   -4.1795    0.0000 C   0  0
   -4.7856   -2.8092    0.0000 C   0  0
   -6.2774   -2.6524    0.0000 O   0  0
   -3.9040   -1.5957    0.0000 C   0  0
   -4.5138   -0.2252    0.0000 O   0  0
  1  2  1  0
  2  3  2  0
  3  4  1  0
  4  5  2  0
  5  6  1  0
  6  7  1  0
  7  8  2  0
  8  9  1  0
  9 10  2  0
 10  2  1  0
 10  6  1  0
  8 11  1  0
 11 12  2  0
 12 13  1  0
 13 14  2  0
 14 15  1  0
 15 16  2  0
 16 11  1  0
 16 17  1  0
 17 18  2  0
 17 19  1  0
 19  7  1  0
 19 20  2  0
M  END
> <Smiles>
Cc1cccn2c3c(nc12)-c1ncccc1C(=O)C3=O

> <ID>
CHEMBL375920

> <standard_value>
86

> <IC50_uM>
0.086

> <Activity>
Yes

> <pIC50>
7.065501549

> <BCI>
1

$$$$

  SciTegic03012415362D

 22 25  0  0  0  0            999 V2000
    2.5981   -1.5000    0.0000 O   0  0
    1.2990   -0.7500    0.0000 C   0  0
    1.2990    0.7500    0.0000 C   0  0
    2.5981    1.5000    0.0000 O   0  0
    0.0000    1.5000    0.0000 C   0  0
   -1.2990    0.7500    0.0000 C   0  0
   -2.4133    1.7530    0.0000 N   0  0
   -1.8032    3.1233    0.0000 C   0  0
   -2.4135    4.4923    0.0000 C   0  0
   -3.9058    4.6517    0.0000 C   0  0
   -4.5146    6.0226    0.0000 O   0  0
   -4.7891    3.4393    0.0000 O   0  0
   -1.5318    5.7059    0.0000 C   0  0
   -0.0400    5.5491    0.0000 C   0  0
    0.5701    4.1788    0.0000 C   0  0
   -0.3115    2.9665    0.0000 N   0  0
   -1.2990   -0.7500    0.0000 C   0  0
   -2.5981   -1.5000    0.0000 N   0  0
   -2.5981   -3.0000    0.0000 C   0  0
   -1.2990   -3.7500    0.0000 C   0  0
    0.0000   -3.0000    0.0000 C   0  0
    0.0000   -1.5000    0.0000 C   0  0
  1  2  2  0
  2  3  1  0
  3  4  2  0
  3  5  1  0
  5  6  2  0
  6  7  1  0
  7  8  2  0
  8  9  1  0
  9 10  1  0
 10 11  2  0
 10 12  1  0
  9 13  2  0
 13 14  1  0
 14 15  2  0
 15 16  1  0
 16  5  1  0
 16  8  1  0
  6 17  1  0
 17 18  2  0
 18 19  1  0
 19 20  2  0
 20 21  1  0
 21 22  2  0
 22 17  1  0
 22  2  1  0
M  END
> <Smiles>
O=C1C(=O)c2c(nc3c(C(=O)O)cccn23)-c2ncccc21

> <ID>
CHEMBL229628

> <standard_value>
95

> <IC50_uM>
0.095

> <Activity>
Yes

> <pIC50>
7.022276395

> <BCI>
1

$$$$

  SciTegic03012415362D

 26 29  0  0  0  0            999 V2000
    5.1937   -3.0093    0.0000 C   0  0
    3.8933   -3.7570    0.0000 C   0  0  3  0  0  0
    2.5951   -3.0039    0.0000 C   0  0
    2.5973   -1.5031    0.0000 O   0  0
    1.2990   -0.7500    0.0000 C   0  0
    1.2990    0.7500    0.0000 C   0  0
    0.0000    1.5000    0.0000 C   0  0
   -1.2990    0.7500    0.0000 C   0  0
   -2.7248    1.2135    0.0000 C   0  0
   -3.6065    0.0000    0.0000 C   0  0
   -2.7248   -1.2135    0.0000 O   0  0
   -1.2990   -0.7500    0.0000 C   0  0
    0.0000   -1.5000    0.0000 C   0  0
   -5.0972    0.1560    0.0000 C   0  0
   -5.9786   -1.0577    0.0000 O   0  0
   -5.7073    1.5263    0.0000 C   0  0
   -7.1991    1.6831    0.0000 N   0  0
   -7.8092    3.0534    0.0000 C   0  0
   -6.9276    4.2670    0.0000 C   0  0
   -5.4358    4.1102    0.0000 C   0  0
   -4.8257    2.7399    0.0000 C   0  0
   -3.3339    2.5831    0.0000 C   0  0
   -2.4520    3.7964    0.0000 O   0  0
    3.8912   -5.2578    0.0000 N   0  0
    5.1887   -6.0105    0.0000 C   0  0
    2.5909   -6.0056    0.0000 C   0  0
  2  1  1  4
  2  3  1  0
  3  4  1  0
  4  5  1  0
  5  6  2  0
  6  7  1  0
  7  8  2  0
  8  9  1  0
  9 10  2  0
 10 11  1  0
 11 12  1  0
 12  8  1  0
 12 13  2  0
 13  5  1  0
 10 14  1  0
 14 15  2  0
 14 16  1  0
 16 17  2  0
 17 18  1  0
 18 19  2  0
 19 20  1  0
 20 21  2  0
 21 16  1  0
 21 22  1  0
 22  9  1  0
 22 23  2  0
  2 24  1  0
 24 25  1  0
 24 26  1  0
M  END
> <Smiles>
CC(COc1ccc2c3c(oc2c1)C(=O)c1ncccc1C3=O)N(C)C

> <ID>
CHEMBL244034

> <standard_value>
100

> <IC50_uM>
0.1

> <Activity>
Yes

> <pIC50>
7

> <BCI>
1

$$$$

  SciTegic03012415362D

 24 27  0  0  0  0            999 V2000
    2.5981   -1.5000    0.0000 O   0  0
    1.2990   -0.7500    0.0000 C   0  0
    1.2990    0.7500    0.0000 C   0  0
    2.5981    1.5000    0.0000 C   0  0
    2.5981    3.0000    0.0000 N   0  0
    1.2990    3.7500    0.0000 N   0  0
    0.0000    3.0000    0.0000 C   0  0
    0.0000    1.5000    0.0000 C   0  0
   -1.2990    0.7500    0.0000 C   0  0
   -2.5981    1.5000    0.0000 O   0  0
   -1.2990   -0.7500    0.0000 C   0  0
   -2.5981   -1.5000    0.0000 N   0  0
   -2.5981   -3.0000    0.0000 C   0  0
   -3.8971   -3.7500    0.0000 C   0  0
   -3.8971   -5.2500    0.0000 C   0  0
   -5.1968   -6.0005    0.0000 C   0  0
   -6.4964   -5.2513    0.0000 F   0  0
   -5.1963   -7.5005    0.0000 F   0  0
   -6.4955   -6.7511    0.0000 F   0  0
   -2.5980   -6.0000    0.0000 C   0  0
   -1.2990   -5.2500    0.0000 C   0  0
   -1.2990   -3.7500    0.0000 C   0  0
    0.0000   -3.0000    0.0000 N   0  0
    0.0000   -1.5000    0.0000 C   0  0
  1  2  2  0
  2  3  1  0
  3  4  2  0
  4  5  1  0
  5  6  2  0
  6  7  1  0
  7  8  2  0
  8  3  1  0
  8  9  1  0
  9 10  2  0
  9 11  1  0
 11 12  2  0
 12 13  1  0
 13 14  2  0
 14 15  1  0
 15 16  1  0
 16 17  1  0
 16 18  1  0
 16 19  1  0
 15 20  2  0
 20 21  1  0
 21 22  2  0
 22 13  1  0
 22 23  1  0
 23 24  2  0
 24 11  1  0
 24  2  1  0
M  END
> <Smiles>
O=C1c2cnncc2C(=O)c2nc3cc(C(F)(F)F)ccc3nc21

> <ID>
CHEMBL229004

> <standard_value>
116

> <IC50_uM>
0.116

> <Activity>
Yes

> <pIC50>
6.935542011

> <BCI>
1

$$$$

  SciTegic03012415362D

 24 27  0  0  0  0            999 V2000
   10.0635    2.7467    0.0000 C   0  0
    9.0651    3.8661    0.0000 O   0  0
    7.5954    3.5619    0.0000 C   0  0
    6.5954    4.6799    0.0000 C   0  0
    5.1271    4.3729    0.0000 C   0  0
    4.6588    2.9478    0.0000 C   0  0
    3.1904    2.6376    0.0000 C   0  0
    2.7248    1.2135    0.0000 N   0  0
    3.6065    0.0000    0.0000 N   0  0
    2.7248   -1.2135    0.0000 N   0  0
    1.2990   -0.7500    0.0000 C   0  0
    1.2990    0.7500    0.0000 C   0  0
    0.0000    1.5000    0.0000 C   0  0
    0.0000    3.0000    0.0000 O   0  0
   -1.2990    0.7500    0.0000 C   0  0
   -2.5981    1.5000    0.0000 C   0  0
   -3.8971    0.7500    0.0000 N   0  0
   -3.8971   -0.7500    0.0000 N   0  0
   -2.5981   -1.5000    0.0000 C   0  0
   -1.2990   -0.7500    0.0000 C   0  0
    0.0000   -1.5000    0.0000 C   0  0
    0.0000   -3.0000    0.0000 O   0  0
    5.6590    1.8298    0.0000 C   0  0
    7.1272    2.1369    0.0000 C   0  0
  1  2  1  0
  2  3  1  0
  3  4  2  0
  4  5  1  0
  5  6  2  0
  6  7  1  0
  7  8  1  0
  8  9  1  0
  9 10  2  0
 10 11  1  0
 11 12  2  0
 12  8  1  0
 12 13  1  0
 13 14  2  0
 13 15  1  0
 15 16  2  0
 16 17  1  0
 17 18  2  0
 18 19  1  0
 19 20  2  0
 20 15  1  0
 20 21  1  0
 21 11  1  0
 21 22  2  0
  6 23  1  0
 23 24  2  0
 24  3  1  0
M  END
> <Smiles>
COc1ccc(Cn2nnc3c2C(=O)c2cnncc2C3=O)cc1

> <ID>
CHEMBL259225

> <standard_value>
118

> <IC50_uM>
0.118

> <Activity>
Yes

> <pIC50>
6.928117993

> <BCI>
1

$$$$

  SciTegic03012415362D

 26 29  0  0  0  0            999 V2000
    1.2948   -3.7516    0.0000 C   0  0
    2.5951   -3.0039    0.0000 C   0  0  3  0  0  0
    3.8933   -3.7570    0.0000 C   0  0
    3.8912   -5.2578    0.0000 N   0  0
    5.1887   -6.0105    0.0000 C   0  0
    2.5909   -6.0056    0.0000 C   0  0
    2.5973   -1.5031    0.0000 O   0  0
    1.2990   -0.7500    0.0000 C   0  0
    1.2990    0.7500    0.0000 C   0  0
    0.0000    1.5000    0.0000 C   0  0
   -1.2990    0.7500    0.0000 C   0  0
   -2.7248    1.2135    0.0000 C   0  0
   -3.6065    0.0000    0.0000 C   0  0
   -2.7248   -1.2135    0.0000 O   0  0
   -1.2990   -0.7500    0.0000 C   0  0
    0.0000   -1.5000    0.0000 C   0  0
   -5.0972    0.1560    0.0000 C   0  0
   -5.9786   -1.0577    0.0000 O   0  0
   -5.7073    1.5263    0.0000 C   0  0
   -7.1991    1.6831    0.0000 N   0  0
   -7.8092    3.0534    0.0000 C   0  0
   -6.9276    4.2670    0.0000 C   0  0
   -5.4358    4.1102    0.0000 C   0  0
   -4.8257    2.7399    0.0000 C   0  0
   -3.3339    2.5831    0.0000 C   0  0
   -2.4520    3.7964    0.0000 O   0  0
  2  1  1  4
  2  3  1  0
  3  4  1  0
  4  5  1  0
  4  6  1  0
  2  7  1  0
  7  8  1  0
  8  9  2  0
  9 10  1  0
 10 11  2  0
 11 12  1  0
 12 13  2  0
 13 14  1  0
 14 15  1  0
 15 11  1  0
 15 16  2  0
 16  8  1  0
 13 17  1  0
 17 18  2  0
 17 19  1  0
 19 20  2  0
 20 21  1  0
 21 22  2  0
 22 23  1  0
 23 24  2  0
 24 19  1  0
 24 25  1  0
 25 12  1  0
 25 26  2  0
M  END
> <Smiles>
CC(CN(C)C)Oc1ccc2c3c(oc2c1)C(=O)c1ncccc1C3=O

> <ID>
CHEMBL244033

> <standard_value>
120

> <IC50_uM>
0.12

> <Activity>
Yes

> <pIC50>
6.920818754

> <BCI>
1

$$$$

  SciTegic03012415362D

 20 23  0  0  0  0            999 V2000
    2.5981   -1.5000    0.0000 O   0  0
    1.2990   -0.7500    0.0000 C   0  0
    1.2990    0.7500    0.0000 C   0  0
    2.5981    1.5000    0.0000 O   0  0
    0.0000    1.5000    0.0000 C   0  0
   -1.2990    0.7500    0.0000 C   0  0
   -2.4133    1.7530    0.0000 N   0  0
   -1.8032    3.1233    0.0000 C   0  0
   -2.4135    4.4923    0.0000 C   0  0
   -1.5318    5.7059    0.0000 C   0  0
   -0.0400    5.5491    0.0000 C   0  0
    0.8416    6.7626    0.0000 Cl  0  0
    0.5701    4.1788    0.0000 C   0  0
   -0.3115    2.9665    0.0000 N   0  0
   -1.2990   -0.7500    0.0000 C   0  0
   -2.5981   -1.5000    0.0000 N   0  0
   -2.5981   -3.0000    0.0000 C   0  0
   -1.2990   -3.7500    0.0000 C   0  0
    0.0000   -3.0000    0.0000 C   0  0
    0.0000   -1.5000    0.0000 C   0  0
  1  2  2  0
  2  3  1  0
  3  4  2  0
  3  5  1  0
  5  6  2  0
  6  7  1  0
  7  8  2  0
  8  9  1  0
  9 10  2  0
 10 11  1  0
 11 12  1  0
 11 13  2  0
 13 14  1  0
 14  5  1  0
 14  8  1  0
  6 15  1  0
 15 16  2  0
 16 17  1  0
 17 18  2  0
 18 19  1  0
 19 20  2  0
 20 15  1  0
 20  2  1  0
M  END
> <Smiles>
O=C1C(=O)c2c(nc3ccc(Cl)cn23)-c2ncccc21

> <ID>
CHEMBL390312

> <standard_value>
124

> <IC50_uM>
0.124

> <Activity>
Yes

> <pIC50>
6.906578315

> <BCI>
1

$$$$

  SciTegic03012415362D

 19 22  0  0  0  0            999 V2000
    2.5981   -1.5000    0.0000 O   0  0
    1.2990   -0.7500    0.0000 C   0  0
    1.2990    0.7500    0.0000 C   0  0
    2.5981    1.5000    0.0000 O   0  0
    0.0000    1.5000    0.0000 C   0  0
   -1.2990    0.7500    0.0000 C   0  0
   -2.4133    1.7530    0.0000 N   0  0
   -1.8032    3.1233    0.0000 C   0  0
   -2.4135    4.4923    0.0000 N   0  0
   -1.5318    5.7059    0.0000 C   0  0
   -0.0400    5.5491    0.0000 C   0  0
    0.5701    4.1788    0.0000 C   0  0
   -0.3115    2.9665    0.0000 N   0  0
   -1.2990   -0.7500    0.0000 C   0  0
   -2.5981   -1.5000    0.0000 N   0  0
   -2.5981   -3.0000    0.0000 C   0  0
   -1.2990   -3.7500    0.0000 C   0  0
    0.0000   -3.0000    0.0000 C   0  0
    0.0000   -1.5000    0.0000 C   0  0
  1  2  2  0
  2  3  1  0
  3  4  2  0
  3  5  1  0
  5  6  2  0
  6  7  1  0
  7  8  2  0
  8  9  1  0
  9 10  2  0
 10 11  1  0
 11 12  2  0
 12 13  1  0
 13  5  1  0
 13  8  1  0
  6 14  1  0
 14 15  2  0
 15 16  1  0
 16 17  2  0
 17 18  1  0
 18 19  2  0
 19 14  1  0
 19  2  1  0
M  END
> <Smiles>
O=C1C(=O)c2c(nc3ncccn23)-c2ncccc21

> <ID>
CHEMBL229680

> <standard_value>
137

> <IC50_uM>
0.137

> <Activity>
Yes

> <pIC50>
6.863279433

> <BCI>
1

$$$$

  SciTegic03012415362D

 27 30  0  0  0  0            999 V2000
    5.1873   -7.5109    0.0000 C   0  0
    5.1894   -6.0109    0.0000 C   0  0
    3.8912   -5.2578    0.0000 N   0  0
    2.5886   -6.0033    0.0000 C   0  0
    1.2919   -5.2492    0.0000 C   0  0
    3.8933   -3.7570    0.0000 C   0  0
    2.5951   -3.0039    0.0000 C   0  0
    2.5973   -1.5031    0.0000 O   0  0
    1.2990   -0.7500    0.0000 C   0  0
    1.2990    0.7500    0.0000 C   0  0
    0.0000    1.5000    0.0000 C   0  0
   -1.2990    0.7500    0.0000 C   0  0
   -2.7248    1.2135    0.0000 C   0  0
   -3.6065    0.0000    0.0000 C   0  0
   -2.7248   -1.2135    0.0000 O   0  0
   -1.2990   -0.7500    0.0000 C   0  0
    0.0000   -1.5000    0.0000 C   0  0
   -5.0972    0.1560    0.0000 C   0  0
   -5.9786   -1.0577    0.0000 O   0  0
   -5.7073    1.5263    0.0000 C   0  0
   -7.1991    1.6831    0.0000 N   0  0
   -7.8092    3.0534    0.0000 C   0  0
   -6.9276    4.2670    0.0000 C   0  0
   -5.4358    4.1102    0.0000 C   0  0
   -4.8257    2.7399    0.0000 C   0  0
   -3.3339    2.5831    0.0000 C   0  0
   -2.4520    3.7964    0.0000 O   0  0
  1  2  1  0
  2  3  1  0
  3  4  1  0
  4  5  1  0
  3  6  1  0
  6  7  1  0
  7  8  1  0
  8  9  1  0
  9 10  2  0
 10 11  1  0
 11 12  2  0
 12 13  1  0
 13 14  2  0
 14 15  1  0
 15 16  1  0
 16 12  1  0
 16 17  2  0
 17  9  1  0
 14 18  1  0
 18 19  2  0
 18 20  1  0
 20 21  2  0
 21 22  1  0
 22 23  2  0
 23 24  1  0
 24 25  2  0
 25 20  1  0
 25 26  1  0
 26 13  1  0
 26 27  2  0
M  END
> <Smiles>
CCN(CC)CCOc1ccc2c3c(oc2c1)C(=O)c1ncccc1C3=O

> <ID>
CHEMBL390904

> <standard_value>
140

> <IC50_uM>
0.14

> <Activity>
Yes

> <pIC50>
6.853871964

> <BCI>
1

$$$$

  SciTegic03012415362D

 19 21  0  0  0  0            999 V2000
    5.1250    4.3735    0.0000 C   0  0
    4.6588    2.9478    0.0000 C   0  0
    5.6608    1.8315    0.0000 C   0  0
    3.1904    2.6376    0.0000 C   0  0
    2.7248    1.2135    0.0000 N   0  0
    3.6065    0.0000    0.0000 N   0  0
    2.7248   -1.2135    0.0000 N   0  0
    1.2990   -0.7500    0.0000 C   0  0
    1.2990    0.7500    0.0000 C   0  0
    0.0000    1.5000    0.0000 C   0  0
    0.0000    3.0000    0.0000 O   0  0
   -1.2990    0.7500    0.0000 C   0  0
   -2.5981    1.5000    0.0000 C   0  0
   -3.8971    0.7500    0.0000 N   0  0
   -3.8971   -0.7500    0.0000 N   0  0
   -2.5981   -1.5000    0.0000 C   0  0
   -1.2990   -0.7500    0.0000 C   0  0
    0.0000   -1.5000    0.0000 C   0  0
    0.0000   -3.0000    0.0000 O   0  0
  1  2  1  0
  2  3  1  0
  2  4  1  0
  4  5  1  0
  5  6  1  0
  6  7  2  0
  7  8  1  0
  8  9  2  0
  9  5  1  0
  9 10  1  0
 10 11  2  0
 10 12  1  0
 12 13  2  0
 13 14  1  0
 14 15  2  0
 15 16  1  0
 16 17  2  0
 17 12  1  0
 17 18  1  0
 18  8  1  0
 18 19  2  0
M  END
> <Smiles>
CC(C)Cn1nnc2c1C(=O)c1cnncc1C2=O

> <ID>
CHEMBL261341

> <standard_value>
140

> <IC50_uM>
0.14

> <Activity>
Yes

> <pIC50>
6.853871964

> <BCI>
1

$$$$

  SciTegic03012415362D

 27 30  0  0  0  0            999 V2000
    3.8964    0.7545    0.0000 C   0  0
    3.8990   -0.7455    0.0000 C   0  0  3  0  0  0
    5.2003   -1.4932    0.0000 C   0  0
    6.4990   -0.7409    0.0000 N   0  0
    7.7996   -1.4883    0.0000 C   0  0
    6.4964    0.7591    0.0000 C   0  0
    2.6003   -1.4977    0.0000 O   0  0
    1.2990   -0.7500    0.0000 C   0  0
    1.2990    0.7500    0.0000 C   0  0
    0.0000    1.5000    0.0000 C   0  0
   -0.3115    2.9665    0.0000 O   0  0
   -1.8032    3.1233    0.0000 C   0  0
   -2.4133    1.7530    0.0000 C   0  0
   -1.2990    0.7500    0.0000 C   0  0
   -1.2990   -0.7500    0.0000 C   0  0
    0.0000   -1.5000    0.0000 C   0  0
    0.0000   -3.0000    0.0000 Cl  0  0
   -3.9040    1.5956    0.0000 C   0  0
   -4.5138    0.2252    0.0000 O   0  0
   -4.7857    2.8092    0.0000 C   0  0
   -6.2774    2.6524    0.0000 C   0  0
   -7.1591    3.8659    0.0000 C   0  0
   -6.5490    5.2362    0.0000 C   0  0
   -5.0572    5.3930    0.0000 N   0  0
   -4.1756    4.1795    0.0000 C   0  0
   -2.6838    4.3363    0.0000 C   0  0
   -2.0734    5.7065    0.0000 O   0  0
  2  1  1  4
  2  3  1  0
  3  4  1  0
  4  5  1  0
  4  6  1  0
  2  7  1  0
  7  8  1  0
  8  9  2  0
  9 10  1  0
 10 11  1  0
 11 12  1  0
 12 13  2  0
 13 14  1  0
 14 10  2  0
 14 15  1  0
 15 16  2  0
 16  8  1  0
 16 17  1  0
 13 18  1  0
 18 19  2  0
 18 20  1  0
 20 21  2  0
 21 22  1  0
 22 23  2  0
 23 24  1  0
 24 25  2  0
 25 20  1  0
 25 26  1  0
 26 12  1  0
 26 27  2  0
M  END
> <Smiles>
CC(CN(C)C)Oc1cc2oc3c(c2cc1Cl)C(=O)c1cccnc1C3=O

> <ID>
CHEMBL244240

> <standard_value>
170

> <IC50_uM>
0.17

> <Activity>
Yes

> <pIC50>
6.769551079

> <BCI>
1

$$$$

  SciTegic03012415362D

 19 21  0  0  0  0            999 V2000
    6.5929    4.6844    0.0000 C   0  0
    5.1253    4.3743    0.0000 C   0  0
    4.6588    2.9478    0.0000 C   0  0
    3.1904    2.6376    0.0000 C   0  0
    2.7248    1.2135    0.0000 N   0  0
    3.6065    0.0000    0.0000 N   0  0
    2.7248   -1.2135    0.0000 N   0  0
    1.2990   -0.7500    0.0000 C   0  0
    1.2990    0.7500    0.0000 C   0  0
    0.0000    1.5000    0.0000 C   0  0
    0.0000    3.0000    0.0000 O   0  0
   -1.2990    0.7500    0.0000 C   0  0
   -2.5981    1.5000    0.0000 C   0  0
   -3.8971    0.7500    0.0000 N   0  0
   -3.8971   -0.7500    0.0000 N   0  0
   -2.5981   -1.5000    0.0000 C   0  0
   -1.2990   -0.7500    0.0000 C   0  0
    0.0000   -1.5000    0.0000 C   0  0
    0.0000   -3.0000    0.0000 O   0  0
  1  2  1  0
  2  3  1  0
  3  4  1  0
  4  5  1  0
  5  6  1  0
  6  7  2  0
  7  8  1  0
  8  9  2  0
  9  5  1  0
  9 10  1  0
 10 11  2  0
 10 12  1  0
 12 13  2  0
 13 14  1  0
 14 15  2  0
 15 16  1  0
 16 17  2  0
 17 12  1  0
 17 18  1  0
 18  8  1  0
 18 19  2  0
M  END
> <Smiles>
CCCCn1nnc2c1C(=O)c1cnncc1C2=O

> <ID>
CHEMBL260541

> <standard_value>
181

> <IC50_uM>
0.181

> <Activity>
Yes

> <pIC50>
6.742321425

> <BCI>
1

$$$$

  SciTegic03012415362D

 20 23  0  0  0  0            999 V2000
    2.5981   -1.5000    0.0000 C   0  0
    1.2990   -0.7500    0.0000 C   0  0
    1.2990    0.7500    0.0000 C   0  0
    0.0000    1.5000    0.0000 N   0  0
   -1.2990    0.7500    0.0000 C   0  0
   -2.7248    1.2135    0.0000 N   0  0
   -3.6065    0.0000    0.0000 C   0  0
   -2.7248   -1.2135    0.0000 C   0  0
   -1.2990   -0.7500    0.0000 N   0  0
    0.0000   -1.5000    0.0000 C   0  0
   -3.3339   -2.5831    0.0000 C   0  0
   -2.4519   -3.7965    0.0000 O   0  0
   -4.8256   -2.7399    0.0000 C   0  0
   -5.4357   -4.1102    0.0000 O   0  0
   -5.7073   -1.5264    0.0000 C   0  0
   -7.1991   -1.6832    0.0000 C   0  0
   -8.0808   -0.4697    0.0000 C   0  0
   -7.4707    0.9006    0.0000 C   0  0
   -5.9789    1.0574    0.0000 N   0  0
   -5.0972   -0.1561    0.0000 C   0  0
  1  2  1  0
  2  3  1  0
  3  4  2  0
  4  5  1  0
  5  6  2  0
  6  7  1  0
  7  8  2  0
  8  9  1  0
  9  5  1  0
  9 10  1  0
 10  2  2  0
  8 11  1  0
 11 12  2  0
 11 13  1  0
 13 14  2  0
 13 15  1  0
 15 16  2  0
 16 17  1  0
 17 18  2  0
 18 19  1  0
 19 20  2  0
 20 15  1  0
 20  7  1  0
M  END
> <Smiles>
Cc1cnc2nc3c(n2c1)C(=O)C(=O)c1cccnc1-3

> <ID>
CHEMBL229682

> <standard_value>
382

> <IC50_uM>
0.382

> <Activity>
Yes

> <pIC50>
6.417936637

> <BCI>
1

$$$$

  SciTegic03012415362D

 28 31  0  0  0  0            999 V2000
    9.0983   -0.7368    0.0000 C   0  0
    7.8003   -1.4887    0.0000 C   0  0
    6.4990   -0.7409    0.0000 N   0  0
    6.4933    0.7599    0.0000 C   0  0
    5.1919    1.5058    0.0000 C   0  0
    5.2003   -1.4932    0.0000 C   0  0
    3.8990   -0.7455    0.0000 C   0  0
    2.6003   -1.4977    0.0000 O   0  0
    1.2990   -0.7500    0.0000 C   0  0
    1.2990    0.7500    0.0000 C   0  0
    0.0000    1.5000    0.0000 C   0  0
   -0.3115    2.9665    0.0000 O   0  0
   -1.8032    3.1233    0.0000 C   0  0
   -2.4133    1.7530    0.0000 C   0  0
   -1.2990    0.7500    0.0000 C   0  0
   -1.2990   -0.7500    0.0000 C   0  0
    0.0000   -1.5000    0.0000 C   0  0
    0.0000   -3.0000    0.0000 Cl  0  0
   -3.9040    1.5956    0.0000 C   0  0
   -4.5138    0.2252    0.0000 O   0  0
   -4.7857    2.8092    0.0000 C   0  0
   -6.2774    2.6524    0.0000 C   0  0
   -7.1591    3.8659    0.0000 C   0  0
   -6.5490    5.2362    0.0000 C   0  0
   -5.0572    5.3930    0.0000 N   0  0
   -4.1756    4.1795    0.0000 C   0  0
   -2.6838    4.3363    0.0000 C   0  0
   -2.0734    5.7065    0.0000 O   0  0
  1  2  1  0
  2  3  1  0
  3  4  1  0
  4  5  1  0
  3  6  1  0
  6  7  1  0
  7  8  1  0
  8  9  1  0
  9 10  2  0
 10 11  1  0
 11 12  1  0
 12 13  1  0
 13 14  2  0
 14 15  1  0
 15 11  2  0
 15 16  1  0
 16 17  2  0
 17  9  1  0
 17 18  1  0
 14 19  1  0
 19 20  2  0
 19 21  1  0
 21 22  2  0
 22 23  1  0
 23 24  2  0
 24 25  1  0
 25 26  2  0
 26 21  1  0
 26 27  1  0
 27 13  1  0
 27 28  2  0
M  END
> <Smiles>
CCN(CC)CCOc1cc2oc3c(c2cc1Cl)C(=O)c1cccnc1C3=O

> <ID>
CHEMBL244238

> <standard_value>
400

> <IC50_uM>
0.4

> <Activity>
Yes

> <pIC50>
6.397940009

> <BCI>
1

$$$$

  SciTegic03012415362D

 30 34  0  0  0  0            999 V2000
   13.2639    1.0147    0.0000 C   0  0
   11.7639    1.0128    0.0000 C   0  0
   11.0110    2.3112    0.0000 C   0  0
    9.5102    2.3093    0.0000 C   0  0
    8.7559    3.6059    0.0000 C   0  0
    7.2559    3.6010    0.0000 C   0  0
    6.5135    2.3033    0.0000 C   0  0
    5.0174    2.1855    0.0000 N   0  0
    4.0431    3.3260    0.0000 C   0  0
    4.3932    4.7846    0.0000 O   0  0
    2.6573    2.7519    0.0000 N   0  0
    2.7248    1.2135    0.0000 C   0  0  3  0  0  0
    3.6065    0.0000    0.0000 C   0  0
    2.7248   -1.2135    0.0000 S   0  0
    1.2990   -0.7500    0.0000 C   0  0
    1.2990    0.7500    0.0000 C   0  0
    0.0000    1.5000    0.0000 C   0  0
    0.0000    3.0000    0.0000 O   0  0
   -1.2990    0.7500    0.0000 C   0  0
   -2.5981    1.5000    0.0000 N   0  0
   -3.8971    0.7500    0.0000 C   0  0
   -3.8971   -0.7500    0.0000 C   0  0
   -2.5981   -1.5000    0.0000 C   0  0
   -1.2990   -0.7500    0.0000 C   0  0
    0.0000   -1.5000    0.0000 C   0  0
    0.0000   -3.0000    0.0000 O   0  0
    4.2337    0.9065    0.0000 C   0  0
    4.8318   -0.4691    0.0000 O   0  0
    7.2645    1.0029    0.0000 C   0  0
    8.7645    1.0078    0.0000 C   0  0
  1  2  1  0
  2  3  1  0
  3  4  1  0
  4  5  2  0
  5  6  1  0
  6  7  2  0
  7  8  1  0
  8  9  1  0
  9 10  2  0
  9 11  1  0
 12 11  1  4
 12 13  1  0
 13 14  1  0
 14 15  1  0
 15 16  2  0
 16 12  1  0
 16 17  1  0
 17 18  2  0
 17 19  1  0
 19 20  2  0
 20 21  1  0
 21 22  2  0
 22 23  1  0
 23 24  2  0
 24 19  1  0
 24 25  1  0
 25 15  1  0
 25 26  2  0
 12 27  1  0
 27  8  1  0
 27 28  2  0
  7 29  1  0
 29 30  2  0
 30  4  1  0
M  END
> <Smiles>
CCCc1ccc(N2C(=O)NC3(CSC4=C3C(=O)c3ncccc3C4=O)C2=O)cc1

> <ID>
CHEMBL489463

> <standard_value>
450

> <IC50_uM>
0.45

> <Activity>
Yes

> <pIC50>
6.346787486

> <BCI>
1

$$$$

  SciTegic03012415362D

 20 23  0  0  1  0            999 V2000
    4.1900   -1.3600    0.0000 C   0  0
    2.6900   -1.3600    0.0000 C   0  0  1  0  0  0
    1.8400   -2.8200    0.0000 C   0  0  1  0  0  0
    2.5876   -4.1204    0.0000 O   0  0
    0.1500   -2.8200    0.0000 O   0  0
   -0.6900   -1.3600    0.0000 C   0  0  2  0  0  0
   -1.9100   -1.3600    0.0000 O   0  0
   -2.7600   -0.5000    0.0000 C   0  0  2  0  0  0
   -1.3725    0.0700    0.0000 C   0  0
   -2.7600    0.7100    0.0000 C   0  0
   -1.9100    1.5700    0.0000 C   0  0
   -0.6900    1.5700    0.0000 C   0  0  1  0  0  0
    0.1500    3.0300    0.0000 C   0  0  2  0  0  0
   -0.6010    4.3285    0.0000 C   0  0
    1.8400    3.0300    0.0000 C   0  0
    2.6900    1.5700    0.0000 C   0  0
    1.8400    0.1000    0.0000 C   0  0  2  0  0  0
    0.1500    0.1000    0.0000 C   0  0  1  0  0  0
   -1.1700    0.6900    0.0000 O   0  0
   -2.1000    0.1500    0.0000 O   0  0
  2  1  1  1
  2  3  1  0
  3  4  1  1
  3  5  1  0
  6  5  1  6
  6  7  1  0
  7  8  1  0
  8  9  1  1
  8 10  1  0
 10 11  1  0
 12 11  1  1
 12 13  1  0
 13 14  1  6
 13 15  1  0
 15 16  1  0
 17 16  1  1
 17  2  1  0
 17 18  1  0
 18  6  1  0
 18 12  1  0
 18 19  1  6
 19 20  1  0
 20  8  1  0
M  END
> <Smiles>
C[C@H]1[C@@H](O)O[C@@H]2O[C@]3(C)CC[C@H]4[C@H](C)CC[C@@H]1[C@@]24OO3

> <ID>
CHEMBL252518

> <standard_value>
540

> <IC50_uM>
0.54

> <Activity>
Yes

> <pIC50>
6.26760624

> <BCI>
1

$$$$

  SciTegic03012415362D

 27 30  0  0  0  0            999 V2000
    3.8964    0.7545    0.0000 C   0  0
    3.8990   -0.7455    0.0000 C   0  0  3  0  0  0
    5.2003   -1.4932    0.0000 C   0  0
    6.4990   -0.7409    0.0000 N   0  0
    7.7996   -1.4883    0.0000 C   0  0
    6.4964    0.7591    0.0000 C   0  0
    2.6003   -1.4977    0.0000 O   0  0
    1.2990   -0.7500    0.0000 C   0  0
    1.2990    0.7500    0.0000 C   0  0
    0.0000    1.5000    0.0000 C   0  0
   -0.3115    2.9665    0.0000 O   0  0
   -1.8032    3.1233    0.0000 C   0  0
   -2.4133    1.7530    0.0000 C   0  0
   -1.2990    0.7500    0.0000 C   0  0
   -1.2990   -0.7500    0.0000 C   0  0
    0.0000   -1.5000    0.0000 C   0  0
    0.0000   -3.0000    0.0000 Cl  0  0
   -3.9040    1.5956    0.0000 C   0  0
   -4.5138    0.2252    0.0000 O   0  0
   -4.7857    2.8092    0.0000 C   0  0
   -6.2774    2.6524    0.0000 C   0  0
   -7.1591    3.8659    0.0000 C   0  0
   -6.5490    5.2362    0.0000 C   0  0
   -5.0572    5.3930    0.0000 C   0  0
   -4.1756    4.1795    0.0000 C   0  0
   -2.6838    4.3363    0.0000 C   0  0
   -2.0734    5.7065    0.0000 O   0  0
  2  1  1  4
  2  3  1  0
  3  4  1  0
  4  5  1  0
  4  6  1  0
  2  7  1  0
  7  8  1  0
  8  9  2  0
  9 10  1  0
 10 11  1  0
 11 12  1  0
 12 13  2  0
 13 14  1  0
 14 10  2  0
 14 15  1  0
 15 16  2  0
 16  8  1  0
 16 17  1  0
 13 18  1  0
 18 19  2  0
 18 20  1  0
 20 21  2  0
 21 22  1  0
 22 23  2  0
 23 24  1  0
 24 25  2  0
 25 20  1  0
 25 26  1  0
 26 12  1  0
 26 27  2  0
M  END
> <Smiles>
CC(CN(C)C)Oc1cc2oc3c(c2cc1Cl)C(=O)c1ccccc1C3=O

> <ID>
CHEMBL445938

> <standard_value>
550

> <IC50_uM>
0.55

> <Activity>
Yes

> <pIC50>
6.259637311

> <BCI>
1

$$$$

  SciTegic03012415362D

 29 33  0  0  0  0            999 V2000
   11.7635    1.0136    0.0000 C   0  0
   11.0110    2.3112    0.0000 O   0  0
    9.5102    2.3093    0.0000 C   0  0
    8.7559    3.6059    0.0000 C   0  0
    7.2559    3.6010    0.0000 C   0  0
    6.5135    2.3033    0.0000 C   0  0
    5.0174    2.1855    0.0000 N   0  0
    4.0431    3.3260    0.0000 C   0  0
    4.3932    4.7846    0.0000 O   0  0
    2.6573    2.7519    0.0000 N   0  0
    2.7248    1.2135    0.0000 C   0  0  3  0  0  0
    3.6065    0.0000    0.0000 C   0  0
    2.7248   -1.2135    0.0000 S   0  0
    1.2990   -0.7500    0.0000 C   0  0
    1.2990    0.7500    0.0000 C   0  0
    0.0000    1.5000    0.0000 C   0  0
    0.0000    3.0000    0.0000 O   0  0
   -1.2990    0.7500    0.0000 C   0  0
   -2.5981    1.5000    0.0000 N   0  0
   -3.8971    0.7500    0.0000 C   0  0
   -3.8971   -0.7500    0.0000 C   0  0
   -2.5981   -1.5000    0.0000 C   0  0
   -1.2990   -0.7500    0.0000 C   0  0
    0.0000   -1.5000    0.0000 C   0  0
    0.0000   -3.0000    0.0000 O   0  0
    4.2337    0.9065    0.0000 C   0  0
    4.8318   -0.4691    0.0000 O   0  0
    7.2645    1.0029    0.0000 C   0  0
    8.7645    1.0078    0.0000 C   0  0
  1  2  1  0
  2  3  1  0
  3  4  2  0
  4  5  1  0
  5  6  2  0
  6  7  1  0
  7  8  1  0
  8  9  2  0
  8 10  1  0
 11 10  1  4
 11 12  1  0
 12 13  1  0
 13 14  1  0
 14 15  2  0
 15 11  1  0
 15 16  1  0
 16 17  2  0
 16 18  1  0
 18 19  2  0
 19 20  1  0
 20 21  2  0
 21 22  1  0
 22 23  2  0
 23 18  1  0
 23 24  1  0
 24 14  1  0
 24 25  2  0
 11 26  1  0
 26  7  1  0
 26 27  2  0
  6 28  1  0
 28 29  2  0
 29  3  1  0
M  END
> <Smiles>
COc1ccc(N2C(=O)NC3(CSC4=C3C(=O)c3ncccc3C4=O)C2=O)cc1

> <ID>
CHEMBL530333

> <standard_value>
650

> <IC50_uM>
0.65

> <Activity>
Yes

> <pIC50>
6.187086643

> <BCI>
1

$$$$

  SciTegic03012415362D

 18 20  0  0  0  0            999 V2000
    2.5981   -1.5000    0.0000 C   0  0
    1.2990   -0.7500    0.0000 C   0  0
    1.2990    0.7500    0.0000 C   0  0
    0.0000    1.5000    0.0000 C   0  0
   -1.2990    0.7500    0.0000 C   0  0
   -2.5981    1.5000    0.0000 C   0  0
   -2.5981    3.0000    0.0000 O   0  0
   -3.8971    0.7500    0.0000 N   0  0
   -3.8971   -0.7500    0.0000 C   0  0
   -5.1968   -1.5004    0.0000 C   0  0
   -6.4971   -0.7525    0.0000 C   0  0
   -7.7950   -1.5046    0.0000 C   0  0
   -7.7926   -3.0046    0.0000 C   0  0
   -6.4923   -3.7525    0.0000 C   0  0
   -5.1945   -3.0005    0.0000 C   0  0
   -2.5981   -1.5000    0.0000 C   0  0
   -1.2990   -0.7500    0.0000 C   0  0
    0.0000   -1.5000    0.0000 C   0  0
  1  2  1  0
  2  3  2  0
  3  4  1  0
  4  5  2  0
  5  6  1  0
  6  7  1  0
  6  8  2  0
  8  9  1  0
  9 10  1  0
 10 11  2  0
 11 12  1  0
 12 13  2  0
 13 14  1  0
 14 15  2  0
 15 10  1  0
  9 16  2  0
 16 17  1  0
 17  5  1  0
 17 18  2  0
 18  2  1  0
M  END
> <Smiles>
Cc1ccc2c(O)nc(-c3ccccc3)cc2c1

> <ID>
CHEMBL142215

> <standard_value>
760

> <IC50_uM>
0.76

> <Activity>
Yes

> <pIC50>
6.119186408

> <BCI>
1

$$$$

  SciTegic03012415362D

 30 34  0  0  0  0            999 V2000
   11.7635    1.0136    0.0000 C   0  0
   11.0110    2.3112    0.0000 N   0  0
   11.7590    3.6114    0.0000 C   0  0
    9.5102    2.3093    0.0000 C   0  0
    8.7559    3.6059    0.0000 C   0  0
    7.2559    3.6010    0.0000 C   0  0
    6.5135    2.3033    0.0000 C   0  0
    5.0174    2.1855    0.0000 N   0  0
    4.0431    3.3260    0.0000 C   0  0
    4.3932    4.7846    0.0000 O   0  0
    2.6573    2.7519    0.0000 N   0  0
    2.7248    1.2135    0.0000 C   0  0  3  0  0  0
    3.6065    0.0000    0.0000 C   0  0
    2.7248   -1.2135    0.0000 S   0  0
    1.2990   -0.7500    0.0000 C   0  0
    1.2990    0.7500    0.0000 C   0  0
    0.0000    1.5000    0.0000 C   0  0
    0.0000    3.0000    0.0000 O   0  0
   -1.2990    0.7500    0.0000 C   0  0
   -2.5981    1.5000    0.0000 N   0  0
   -3.8971    0.7500    0.0000 C   0  0
   -3.8971   -0.7500    0.0000 C   0  0
   -2.5981   -1.5000    0.0000 C   0  0
   -1.2990   -0.7500    0.0000 C   0  0
    0.0000   -1.5000    0.0000 C   0  0
    0.0000   -3.0000    0.0000 O   0  0
    4.2337    0.9065    0.0000 C   0  0
    4.8318   -0.4691    0.0000 O   0  0
    7.2645    1.0029    0.0000 C   0  0
    8.7645    1.0078    0.0000 C   0  0
  1  2  1  0
  2  3  1  0
  2  4  1  0
  4  5  2  0
  5  6  1  0
  6  7  2  0
  7  8  1  0
  8  9  1  0
  9 10  2  0
  9 11  1  0
 12 11  1  4
 12 13  1  0
 13 14  1  0
 14 15  1  0
 15 16  2  0
 16 12  1  0
 16 17  1  0
 17 18  2  0
 17 19  1  0
 19 20  2  0
 20 21  1  0
 21 22  2  0
 22 23  1  0
 23 24  2  0
 24 19  1  0
 24 25  1  0
 25 15  1  0
 25 26  2  0
 12 27  1  0
 27  8  1  0
 27 28  2  0
  7 29  1  0
 29 30  2  0
 30  4  1  0
M  END
> <Smiles>
CN(C)c1ccc(N2C(=O)NC3(CSC4=C3C(=O)c3ncccc3C4=O)C2=O)cc1

> <ID>
CHEMBL523263

> <standard_value>
800

> <IC50_uM>
0.8

> <Activity>
Yes

> <pIC50>
6.096910013

> <BCI>
1

$$$$

  SciTegic03012415362D

 32 36  0  0  0  0            999 V2000
   15.5175   -0.2818    0.0000 C   0  0
   14.0175   -0.2837    0.0000 C   0  0
   13.2647    1.0147    0.0000 C   0  0
   11.7639    1.0128    0.0000 C   0  0
   11.0110    2.3112    0.0000 C   0  0
    9.5102    2.3093    0.0000 C   0  0
    8.7559    3.6059    0.0000 C   0  0
    7.2559    3.6010    0.0000 C   0  0
    6.5135    2.3033    0.0000 C   0  0
    5.0174    2.1855    0.0000 N   0  0
    4.0431    3.3260    0.0000 C   0  0
    4.3932    4.7846    0.0000 O   0  0
    2.6573    2.7519    0.0000 N   0  0
    2.7248    1.2135    0.0000 C   0  0  3  0  0  0
    3.6065    0.0000    0.0000 C   0  0
    2.7248   -1.2135    0.0000 S   0  0
    1.2990   -0.7500    0.0000 C   0  0
    1.2990    0.7500    0.0000 C   0  0
    0.0000    1.5000    0.0000 C   0  0
    0.0000    3.0000    0.0000 O   0  0
   -1.2990    0.7500    0.0000 C   0  0
   -2.5981    1.5000    0.0000 N   0  0
   -3.8971    0.7500    0.0000 C   0  0
   -3.8971   -0.7500    0.0000 C   0  0
   -2.5981   -1.5000    0.0000 C   0  0
   -1.2990   -0.7500    0.0000 C   0  0
    0.0000   -1.5000    0.0000 C   0  0
    0.0000   -3.0000    0.0000 O   0  0
    4.2337    0.9065    0.0000 C   0  0
    4.8318   -0.4691    0.0000 O   0  0
    7.2645    1.0029    0.0000 C   0  0
    8.7645    1.0078    0.0000 C   0  0
  1  2  1  0
  2  3  1  0
  3  4  1  0
  4  5  1  0
  5  6  1  0
  6  7  2  0
  7  8  1  0
  8  9  2  0
  9 10  1  0
 10 11  1  0
 11 12  2  0
 11 13  1  0
 14 13  1  4
 14 15  1  0
 15 16  1  0
 16 17  1  0
 17 18  2  0
 18 14  1  0
 18 19  1  0
 19 20  2  0
 19 21  1  0
 21 22  2  0
 22 23  1  0
 23 24  2  0
 24 25  1  0
 25 26  2  0
 26 21  1  0
 26 27  1  0
 27 17  1  0
 27 28  2  0
 14 29  1  0
 29 10  1  0
 29 30  2  0
  9 31  1  0
 31 32  2  0
 32  6  1  0
M  END
> <Smiles>
CCCCCc1ccc(N2C(=O)NC3(CSC4=C3C(=O)c3ncccc3C4=O)C2=O)cc1

> <ID>
CHEMBL510689

> <standard_value>
830

> <IC50_uM>
0.83

> <Activity>
Yes

> <pIC50>
6.080921908

> <BCI>
1

$$$$

  SciTegic03012415362D

 31 35  0  0  0  0            999 V2000
   11.7576    3.6153    0.0000 C   0  0
   11.0110    2.3143    0.0000 C   0  0
   11.7649    1.0175    0.0000 C   0  0
   12.5110    2.3185    0.0000 C   0  0
    9.5102    2.3093    0.0000 C   0  0
    8.7559    3.6059    0.0000 C   0  0
    7.2559    3.6010    0.0000 C   0  0
    6.5135    2.3033    0.0000 C   0  0
    5.0174    2.1855    0.0000 N   0  0
    4.0431    3.3260    0.0000 C   0  0
    4.3932    4.7846    0.0000 O   0  0
    2.6573    2.7519    0.0000 N   0  0
    2.7248    1.2135    0.0000 C   0  0  3  0  0  0
    3.6065    0.0000    0.0000 C   0  0
    2.7248   -1.2135    0.0000 S   0  0
    1.2990   -0.7500    0.0000 C   0  0
    1.2990    0.7500    0.0000 C   0  0
    0.0000    1.5000    0.0000 C   0  0
    0.0000    3.0000    0.0000 O   0  0
   -1.2990    0.7500    0.0000 C   0  0
   -2.5981    1.5000    0.0000 N   0  0
   -3.8971    0.7500    0.0000 C   0  0
   -3.8971   -0.7500    0.0000 C   0  0
   -2.5981   -1.5000    0.0000 C   0  0
   -1.2990   -0.7500    0.0000 C   0  0
    0.0000   -1.5000    0.0000 C   0  0
    0.0000   -3.0000    0.0000 O   0  0
    4.2337    0.9065    0.0000 C   0  0
    4.8318   -0.4691    0.0000 O   0  0
    7.2645    1.0029    0.0000 C   0  0
    8.7645    1.0078    0.0000 C   0  0
  1  2  1  0
  2  3  1  0
  2  4  1  0
  2  5  1  0
  5  6  2  0
  6  7  1  0
  7  8  2  0
  8  9  1  0
  9 10  1  0
 10 11  2  0
 10 12  1  0
 13 12  1  4
 13 14  1  0
 14 15  1  0
 15 16  1  0
 16 17  2  0
 17 13  1  0
 17 18  1  0
 18 19  2  0
 18 20  1  0
 20 21  2  0
 21 22  1  0
 22 23  2  0
 23 24  1  0
 24 25  2  0
 25 20  1  0
 25 26  1  0
 26 16  1  0
 26 27  2  0
 13 28  1  0
 28  9  1  0
 28 29  2  0
  8 30  1  0
 30 31  2  0
 31  5  1  0
M  END
> <Smiles>
CC(C)(C)c1ccc(N2C(=O)NC3(CSC4=C3C(=O)c3ncccc3C4=O)C2=O)cc1

> <ID>
CHEMBL453903

> <standard_value>
850

> <IC50_uM>
0.85

> <Activity>
Yes

> <pIC50>
6.070581074

> <BCI>
1

$$$$

  SciTegic03012415362D

 30 33  0  0  0  0            999 V2000
    9.0983   -0.7368    0.0000 C   0  0
    7.8003   -1.4887    0.0000 C   0  0
    7.8029   -2.9887    0.0000 C   0  0
    6.4990   -0.7409    0.0000 N   0  0
    5.2003   -1.4932    0.0000 C   0  0
    3.8990   -0.7455    0.0000 C   0  0
    2.6003   -1.4977    0.0000 O   0  0
    1.2990   -0.7500    0.0000 C   0  0
    1.2990    0.7500    0.0000 C   0  0
    0.0000    1.5000    0.0000 C   0  0
   -0.3115    2.9665    0.0000 O   0  0
   -1.8032    3.1233    0.0000 C   0  0
   -2.4133    1.7530    0.0000 C   0  0
   -1.2990    0.7500    0.0000 C   0  0
   -1.2990   -0.7500    0.0000 C   0  0
    0.0000   -1.5000    0.0000 C   0  0
    0.0000   -3.0000    0.0000 Cl  0  0
   -3.9040    1.5956    0.0000 C   0  0
   -4.5138    0.2252    0.0000 O   0  0
   -4.7857    2.8092    0.0000 C   0  0
   -6.2774    2.6524    0.0000 C   0  0
   -7.1591    3.8659    0.0000 C   0  0
   -6.5490    5.2362    0.0000 C   0  0
   -5.0572    5.3930    0.0000 N   0  0
   -4.1756    4.1795    0.0000 C   0  0
   -2.6838    4.3363    0.0000 C   0  0
   -2.0734    5.7065    0.0000 O   0  0
    6.4933    0.7599    0.0000 C   0  0
    5.1919    1.5058    0.0000 C   0  0
    7.7897    1.5144    0.0000 C   0  0
  1  2  1  0
  2  3  1  0
  2  4  1  0
  4  5  1  0
  5  6  1  0
  6  7  1  0
  7  8  1  0
  8  9  2  0
  9 10  1  0
 10 11  1  0
 11 12  1  0
 12 13  2  0
 13 14  1  0
 14 10  2  0
 14 15  1  0
 15 16  2  0
 16  8  1  0
 16 17  1  0
 13 18  1  0
 18 19  2  0
 18 20  1  0
 20 21  2  0
 21 22  1  0
 22 23  2  0
 23 24  1  0
 24 25  2  0
 25 20  1  0
 25 26  1  0
 26 12  1  0
 26 27  2  0
  4 28  1  0
 28 29  1  0
 28 30  1  0
M  END
> <Smiles>
CC(C)N(CCOc1cc2oc3c(c2cc1Cl)C(=O)c1cccnc1C3=O)C(C)C

> <ID>
CHEMBL390905

> <standard_value>
910

> <IC50_uM>
0.91

> <Activity>
Yes

> <pIC50>
6.040958608

> <BCI>
1

$$$$

  SciTegic03012415362D

 23 24  0  0  0  0            999 V2000
    3.8983   -0.7459    0.0000 C   0  0
    2.6003   -1.4977    0.0000 O   0  0
    1.2990   -0.7500    0.0000 C   0  0
    1.2990    0.7500    0.0000 C   0  0
    0.0000    1.5000    0.0000 C   0  0
   -1.2990    0.7500    0.0000 C   0  0
   -2.6003    1.4977    0.0000 C   0  0
   -3.8990    0.7455    0.0000 C   0  0
   -3.8978   -0.7554    0.0000 C   0  0
   -5.1947   -1.5091    0.0000 C   0  0
   -5.1905   -3.0091    0.0000 C   0  0
   -6.4897   -3.7605    0.0000 O   0  0
   -7.7898   -3.0124    0.0000 C   0  0
   -3.8893   -3.7554    0.0000 C   0  0
   -3.8820   -5.2563    0.0000 O   0  0
   -2.5798   -6.0007    0.0000 C   0  0
   -2.5924   -3.0018    0.0000 C   0  0
   -1.2890   -3.7458    0.0000 O   0  0
   -0.4251   -3.2422    0.0000 C   0  0
   -2.5967   -1.5018    0.0000 C   0  0
   -1.2990   -0.7500    0.0000 C   0  0
    0.0000   -1.5000    0.0000 C   0  0
    0.0000   -2.5000    0.0000 N   0  0
  1  2  1  0
  2  3  1  0
  3  4  2  0
  4  5  1  0
  5  6  2  0
  6  7  1  0
  7  8  2  0
  8  9  1  0
  9 10  2  0
 10 11  1  0
 11 12  1  0
 12 13  1  0
 11 14  2  0
 14 15  1  0
 15 16  1  0
 14 17  1  0
 17 18  1  0
 18 19  1  0
 17 20  2  0
 20  9  1  0
  6 21  1  0
 21 22  2  0
 22  3  1  0
 22 23  1  0
M  END
> <Smiles>
COc1ccc(/C=C\c2cc(OC)c(OC)c(OC)c2)cc1N

> <ID>
CHEMBL330407

> <standard_value>
7.7

> <IC50_uM>
0.0077

> <Activity>
Yes

> <pIC50>
2.113509275

> <BCI>
1

$$$$

  SciTegic03012415362D

 24 26  0  0  0  0            999 V2000
    6.4856   -5.2634    0.0000 C   0  0
    5.1851   -6.0107    0.0000 O   0  0
    3.8864   -5.2585    0.0000 C   0  0
    3.8915   -3.7585    0.0000 C   0  0
    2.5951   -3.0039    0.0000 C   0  0
    2.5973   -1.5031    0.0000 C   0  0
    3.8976   -0.7553    0.0000 O   0  0
    1.2990   -0.7500    0.0000 C   0  0
    1.2990    0.7500    0.0000 C   0  0
    0.0000    1.5000    0.0000 C   0  0
   -1.2990    0.7500    0.0000 C   0  0
   -1.2990   -0.7500    0.0000 C   0  0
   -2.7248   -1.2135    0.0000 C   0  0
   -3.6065    0.0000    0.0000 C   0  0
   -2.7248    1.2135    0.0000 N   0  0
   -3.1882    2.6401    0.0000 C   0  0
    0.0000   -1.5000    0.0000 C   0  0
    1.2935   -3.7495    0.0000 C   0  0
    1.2883   -5.2495    0.0000 C   0  0
   -0.0156   -5.9927    0.0000 O   0  0
   -1.3109   -5.2364    0.0000 C   0  0
    2.5847   -6.0040    0.0000 C   0  0
    2.5826   -7.5048    0.0000 O   0  0
    3.8801   -8.2575    0.0000 C   0  0
  1  2  1  0
  2  3  1  0
  3  4  2  0
  4  5  1  0
  5  6  1  0
  6  7  2  0
  6  8  1  0
  8  9  2  0
  9 10  1  0
 10 11  2  0
 11 12  1  0
 12 13  1  0
 13 14  2  0
 14 15  1  0
 15 11  1  0
 15 16  1  0
 12 17  2  0
 17  8  1  0
  5 18  2  0
 18 19  1  0
 19 20  1  0
 20 21  1  0
 19 22  2  0
 22  3  1  0
 22 23  1  0
 23 24  1  0
M  END
> <Smiles>
COc1cc(C(=O)c2ccc3c(ccn3C)c2)cc(OC)c1OC

> <ID>
CHEMBL230741

> <standard_value>
13.4

> <IC50_uM>
0.0134

> <Activity>
Yes

> <pIC50>
1.872895202

> <BCI>
1

$$$$

  SciTegic03012415362D

 23 24  0  0  0  0            999 V2000
    2.5951   -3.0031    0.0000 C   0  0
    2.5973   -1.5031    0.0000 O   0  0
    1.2990   -0.7500    0.0000 C   0  0
    1.2990    0.7500    0.0000 C   0  0
    0.0000    1.5000    0.0000 C   0  0
   -1.2990    0.7500    0.0000 C   0  0
   -2.5973    1.5031    0.0000 C   0  0
   -3.8976    0.7553    0.0000 O   0  0
   -2.5951    3.0039    0.0000 C   0  0
   -3.8916    3.7585    0.0000 C   0  0
   -3.8864    5.2585    0.0000 C   0  0
   -5.1851    6.0107    0.0000 O   0  0
   -6.4856    5.2633    0.0000 C   0  0
   -2.5847    6.0040    0.0000 C   0  0
   -2.5765    7.5048    0.0000 O   0  0
   -1.2738    8.2484    0.0000 C   0  0
   -1.2883    5.2495    0.0000 C   0  0
    0.0156    5.9927    0.0000 O   0  0
    1.3109    5.2364    0.0000 C   0  0
   -1.2935    3.7495    0.0000 C   0  0
   -1.2990   -0.7500    0.0000 C   0  0
   -2.5981   -1.5000    0.0000 N   0  0
    0.0000   -1.5000    0.0000 C   0  0
  1  2  1  0
  2  3  1  0
  3  4  2  0
  4  5  1  0
  5  6  2  0
  6  7  1  0
  7  8  2  0
  7  9  1  0
  9 10  2  0
 10 11  1  0
 11 12  1  0
 12 13  1  0
 11 14  2  0
 14 15  1  0
 15 16  1  0
 14 17  1  0
 17 18  1  0
 18 19  1  0
 17 20  2  0
 20  9  1  0
  6 21  1  0
 21 22  1  0
 21 23  2  0
 23  3  1  0
M  END
> <Smiles>
COc1ccc(C(=O)c2cc(OC)c(OC)c(OC)c2)c(N)c1

> <ID>
CHEMBL9011

> <standard_value>
26

> <IC50_uM>
0.026

> <Activity>
Yes

> <pIC50>
1.585026652

> <BCI>
1

$$$$

  SciTegic03012415362D

 23 24  0  0  0  0            999 V2000
    3.8983   -0.7459    0.0000 C   0  0
    2.6003   -1.4977    0.0000 O   0  0
    1.2990   -0.7500    0.0000 C   0  0
    1.2990    0.7500    0.0000 C   0  0
    0.0000    1.5000    0.0000 C   0  0
   -1.2990    0.7500    0.0000 C   0  0
   -2.6003    1.4977    0.0000 C   0  0
   -2.6030    2.9977    0.0000 O   0  0
   -3.8990    0.7455    0.0000 C   0  0
   -5.2007    1.4909    0.0000 C   0  0
   -6.4972    0.7364    0.0000 C   0  0
   -7.7980    1.4850    0.0000 O   0  0
   -7.8010    2.9850    0.0000 C   0  0
   -6.4920   -0.7636    0.0000 C   0  0
   -7.7876   -1.5212    0.0000 O   0  0
   -7.7802   -3.0212    0.0000 C   0  0
   -5.1903   -1.5091    0.0000 C   0  0
   -5.1821   -3.0099    0.0000 O   0  0
   -3.8794   -3.7535    0.0000 C   0  0
   -3.8939   -0.7546    0.0000 C   0  0
   -1.2990   -0.7500    0.0000 C   0  0
    0.0000   -1.5000    0.0000 C   0  0
    0.0000   -3.0000    0.0000 N   0  0
  1  2  1  0
  2  3  1  0
  3  4  2  0
  4  5  1  0
  5  6  2  0
  6  7  1  0
  7  8  2  0
  7  9  1  0
  9 10  2  0
 10 11  1  0
 11 12  1  0
 12 13  1  0
 11 14  2  0
 14 15  1  0
 15 16  1  0
 14 17  1  0
 17 18  1  0
 18 19  1  0
 17 20  2  0
 20  9  1  0
  6 21  1  0
 21 22  2  0
 22  3  1  0
 22 23  1  0
M  END
> <Smiles>
COc1ccc(C(=O)c2cc(OC)c(OC)c(OC)c2)cc1N

> <ID>
CHEMBL99988

> <standard_value>
33

> <IC50_uM>
0.033

> <Activity>
Yes

> <pIC50>
1.48148606

> <BCI>
1

$$$$

  SciTegic03012415362D

 25 27  0  0  0  0            999 V2000
   -0.2237   -5.5078    0.0000 C   0  0
   -0.6890   -4.0818    0.0000 C   0  0
    0.3114   -2.9665    0.0000 N   0  0
    1.8032   -3.1233    0.0000 C   0  0
    2.4133   -1.7530    0.0000 C   0  0
    1.2990   -0.7500    0.0000 C   0  0
    1.2990    0.7500    0.0000 C   0  0
    0.0000    1.5000    0.0000 C   0  0
   -0.0031    3.0008    0.0000 C   0  0
    1.2946    3.7531    0.0000 O   0  0
   -1.3039    3.7494    0.0000 C   0  0
   -1.3092    5.2494    0.0000 C   0  0
   -2.6108    5.9949    0.0000 C   0  0
   -2.6130    7.4957    0.0000 O   0  0
   -1.3154    8.2484    0.0000 C   0  0
   -3.9073    5.2404    0.0000 C   0  0
   -5.2112    5.9836    0.0000 O   0  0
   -6.5065    5.2273    0.0000 C   0  0
   -3.9021    3.7404    0.0000 C   0  0
   -5.1977    2.9828    0.0000 O   0  0
   -5.1903    1.4829    0.0000 C   0  0
   -2.6005    2.9949    0.0000 C   0  0
   -1.2990    0.7500    0.0000 C   0  0
   -1.2990   -0.7500    0.0000 C   0  0
    0.0000   -1.5000    0.0000 C   0  0
  1  2  1  0
  2  3  1  0
  3  4  1  0
  4  5  2  0
  5  6  1  0
  6  7  2  0
  7  8  1  0
  8  9  1  0
  9 10  2  0
  9 11  1  0
 11 12  2  0
 12 13  1  0
 13 14  1  0
 14 15  1  0
 13 16  2  0
 16 17  1  0
 17 18  1  0
 16 19  1  0
 19 20  1  0
 20 21  1  0
 19 22  2  0
 22 11  1  0
  8 23  2  0
 23 24  1  0
 24 25  2  0
 25  6  1  0
 25  3  1  0
M  END
> <Smiles>
CCn1ccc2cc(C(=O)c3cc(OC)c(OC)c(OC)c3)ccc21

> <ID>
CHEMBL230846

> <standard_value>
41

> <IC50_uM>
0.041

> <Activity>
Yes

> <pIC50>
1.387216143

> <BCI>
1

$$$$

  SciTegic03012415362D

 24 25  0  0  0  0            999 V2000
    5.1996   -1.4928    0.0000 C   0  0
    3.8990   -0.7455    0.0000 C   0  0
    2.6003   -1.4977    0.0000 O   0  0
    1.2990   -0.7500    0.0000 C   0  0
    1.2990    0.7500    0.0000 C   0  0
    0.0000    1.5000    0.0000 C   0  0
   -1.2990    0.7500    0.0000 C   0  0
   -2.6003    1.4977    0.0000 C   0  0
   -2.6030    2.9977    0.0000 O   0  0
   -3.8990    0.7455    0.0000 C   0  0
   -5.2007    1.4909    0.0000 C   0  0
   -6.4972    0.7364    0.0000 C   0  0
   -7.7980    1.4850    0.0000 O   0  0
   -7.8010    2.9850    0.0000 C   0  0
   -6.4920   -0.7636    0.0000 C   0  0
   -7.7876   -1.5212    0.0000 O   0  0
   -7.7802   -3.0212    0.0000 C   0  0
   -5.1903   -1.5091    0.0000 C   0  0
   -5.1821   -3.0099    0.0000 O   0  0
   -3.8794   -3.7535    0.0000 C   0  0
   -3.8939   -0.7546    0.0000 C   0  0
   -1.2990   -0.7500    0.0000 C   0  0
    0.0000   -1.5000    0.0000 C   0  0
    0.0000   -3.0000    0.0000 N   0  0
  1  2  1  0
  2  3  1  0
  3  4  1  0
  4  5  2  0
  5  6  1  0
  6  7  2  0
  7  8  1  0
  8  9  2  0
  8 10  1  0
 10 11  2  0
 11 12  1  0
 12 13  1  0
 13 14  1  0
 12 15  2  0
 15 16  1  0
 16 17  1  0
 15 18  1  0
 18 19  1  0
 19 20  1  0
 18 21  2  0
 21 10  1  0
  7 22  1  0
 22 23  2  0
 23  4  1  0
 23 24  1  0
M  END
> <Smiles>
CCOc1ccc(C(=O)c2cc(OC)c(OC)c(OC)c2)cc1N

> <ID>
CHEMBL329925

> <standard_value>
42

> <IC50_uM>
0.042

> <Activity>
Yes

> <pIC50>
1.37675071

> <BCI>
1

$$$$

  SciTegic03012415362D

 25 27  0  0  0  0            999 V2000
    6.4856   -5.2634    0.0000 C   0  0
    5.1851   -6.0107    0.0000 O   0  0
    3.8864   -5.2585    0.0000 C   0  0
    3.8915   -3.7585    0.0000 C   0  0
    2.5951   -3.0039    0.0000 C   0  0
    2.5973   -1.5031    0.0000 C   0  0
    3.8976   -0.7553    0.0000 O   0  0
    1.2990   -0.7500    0.0000 C   0  0
    1.2990    0.7500    0.0000 C   0  0
    0.0000    1.5000    0.0000 C   0  0
   -1.2990    0.7500    0.0000 C   0  0
   -1.2990   -0.7500    0.0000 C   0  0
   -2.7248   -1.2135    0.0000 C   0  0
   -3.6065    0.0000    0.0000 C   0  0
   -2.7248    1.2135    0.0000 N   0  0
   -3.1905    2.6376    0.0000 C   0  0
   -4.6581    2.9476    0.0000 O   0  0
    0.0000   -1.5000    0.0000 C   0  0
    1.2935   -3.7495    0.0000 C   0  0
    1.2883   -5.2495    0.0000 C   0  0
   -0.0156   -5.9927    0.0000 O   0  0
   -1.3109   -5.2364    0.0000 C   0  0
    2.5847   -6.0040    0.0000 C   0  0
    2.5826   -7.5048    0.0000 O   0  0
    3.8801   -8.2575    0.0000 C   0  0
  1  2  1  0
  2  3  1  0
  3  4  2  0
  4  5  1  0
  5  6  1  0
  6  7  2  0
  6  8  1  0
  8  9  2  0
  9 10  1  0
 10 11  2  0
 11 12  1  0
 12 13  1  0
 13 14  2  0
 14 15  1  0
 15 11  1  0
 15 16  1  0
 16 17  1  0
 12 18  2  0
 18  8  1  0
  5 19  2  0
 19 20  1  0
 20 21  1  0
 21 22  1  0
 20 23  2  0
 23  3  1  0
 23 24  1  0
 24 25  1  0
M  END
> <Smiles>
COc1cc(C(=O)c2ccc3c(ccn3CO)c2)cc(OC)c1OC

> <ID>
CHEMBL230747

> <standard_value>
43

> <IC50_uM>
0.043

> <Activity>
Yes

> <pIC50>
1.366531544

> <BCI>
1

$$$$

  SciTegic03012415362D

 23 24  0  0  0  0            999 V2000
    2.5951   -3.0031    0.0000 C   0  0
    2.5973   -1.5031    0.0000 O   0  0
    1.2990   -0.7500    0.0000 C   0  0
    1.2990    0.7500    0.0000 C   0  0
    0.0000    1.5000    0.0000 C   0  0
   -1.2990    0.7500    0.0000 C   0  0
   -2.5981    1.5000    0.0000 N   0  0
   -1.2990   -0.7500    0.0000 C   0  0
   -2.5972   -1.5031    0.0000 C   0  0
   -3.8976   -0.7554    0.0000 O   0  0
   -2.5951   -3.0039    0.0000 C   0  0
   -3.8915   -3.7585    0.0000 C   0  0
   -3.8863   -5.2585    0.0000 C   0  0
   -5.1850   -6.0107    0.0000 O   0  0
   -6.4856   -5.2634    0.0000 C   0  0
   -2.5847   -6.0040    0.0000 C   0  0
   -2.5764   -7.5048    0.0000 O   0  0
   -1.2737   -8.2485    0.0000 C   0  0
   -1.2883   -5.2495    0.0000 C   0  0
    0.0156   -5.9927    0.0000 O   0  0
    1.3110   -5.2364    0.0000 C   0  0
   -1.2935   -3.7495    0.0000 C   0  0
    0.0000   -1.5000    0.0000 C   0  0
  1  2  1  0
  2  3  1  0
  3  4  2  0
  4  5  1  0
  5  6  2  0
  6  7  1  0
  6  8  1  0
  8  9  1  0
  9 10  2  0
  9 11  1  0
 11 12  2  0
 12 13  1  0
 13 14  1  0
 14 15  1  0
 13 16  2  0
 16 17  1  0
 17 18  1  0
 16 19  1  0
 19 20  1  0
 20 21  1  0
 19 22  2  0
 22 11  1  0
  8 23  2  0
 23  3  1  0
M  END
> <Smiles>
COc1ccc(N)c(C(=O)c2cc(OC)c(OC)c(OC)c2)c1

> <ID>
CHEMBL9309

> <standard_value>
100

> <IC50_uM>
0.1

> <Activity>
Yes

> <pIC50>
1

> <BCI>
1

$$$$

  SciTegic03012415362D

 23 25  0  0  0  0            999 V2000
    6.4856   -5.2634    0.0000 C   0  0
    5.1851   -6.0107    0.0000 O   0  0
    3.8864   -5.2585    0.0000 C   0  0
    3.8915   -3.7585    0.0000 C   0  0
    2.5951   -3.0039    0.0000 C   0  0
    2.5973   -1.5031    0.0000 C   0  0
    3.8976   -0.7553    0.0000 O   0  0
    1.2990   -0.7500    0.0000 C   0  0
    1.2990    0.7500    0.0000 C   0  0
    0.0000    1.5000    0.0000 C   0  0
   -1.2990    0.7500    0.0000 C   0  0
   -2.7248    1.2135    0.0000 N   0  0
   -3.6065    0.0000    0.0000 C   0  0
   -2.7248   -1.2135    0.0000 C   0  0
   -1.2990   -0.7500    0.0000 C   0  0
    0.0000   -1.5000    0.0000 C   0  0
    1.2935   -3.7495    0.0000 C   0  0
    1.2883   -5.2495    0.0000 C   0  0
   -0.0156   -5.9927    0.0000 O   0  0
   -1.3109   -5.2364    0.0000 C   0  0
    2.5847   -6.0040    0.0000 C   0  0
    2.5826   -7.5048    0.0000 O   0  0
    3.8801   -8.2575    0.0000 C   0  0
  1  2  1  0
  2  3  1  0
  3  4  2  0
  4  5  1  0
  5  6  1  0
  6  7  2  0
  6  8  1  0
  8  9  2  0
  9 10  1  0
 10 11  2  0
 11 12  1  0
 12 13  1  0
 13 14  2  0
 14 15  1  0
 15 11  1  0
 15 16  2  0
 16  8  1  0
  5 17  2  0
 17 18  1  0
 18 19  1  0
 19 20  1  0
 18 21  2  0
 21  3  1  0
 21 22  1  0
 22 23  1  0
M  END
> <Smiles>
COc1cc(C(=O)c2ccc3[nH]ccc3c2)cc(OC)c1OC

> <ID>
CHEMBL395785

> <standard_value>
103

> <IC50_uM>
0.103

> <Activity>
Yes

> <pIC50>
0.987162775

> <BCI>
1

$$$$

  SciTegic03012415362D

 22 23  0  0  0  0            999 V2000
    3.8983   -0.7459    0.0000 C   0  0
    2.6003   -1.4977    0.0000 O   0  0
    1.2990   -0.7500    0.0000 C   0  0
    1.2990    0.7500    0.0000 C   0  0
    0.0000    1.5000    0.0000 C   0  0
   -0.0031    3.0008    0.0000 C   0  0
    1.2946    3.7531    0.0000 O   0  0
   -1.3039    3.7494    0.0000 C   0  0
   -2.6005    2.9949    0.0000 C   0  0
   -3.9021    3.7404    0.0000 C   0  0
   -5.1985    2.9859    0.0000 N   0  0
   -3.9073    5.2404    0.0000 C   0  0
   -2.6108    5.9949    0.0000 C   0  0
   -1.3092    5.2494    0.0000 C   0  0
   -0.0128    6.0039    0.0000 Cl  0  0
   -1.2990    0.7500    0.0000 C   0  0
   -1.2990   -0.7500    0.0000 C   0  0
   -2.6003   -1.4978    0.0000 O   0  0
   -3.8983   -0.7459    0.0000 C   0  0
    0.0000   -1.5000    0.0000 C   0  0
    0.0031   -3.0008    0.0000 O   0  0
    1.3032   -3.7490    0.0000 C   0  0
  1  2  1  0
  2  3  1  0
  3  4  2  0
  4  5  1  0
  5  6  1  0
  6  7  2  0
  6  8  1  0
  8  9  2  0
  9 10  1  0
 10 11  1  0
 10 12  2  0
 12 13  1  0
 13 14  2  0
 14  8  1  0
 14 15  1  0
  5 16  2  0
 16 17  1  0
 17 18  1  0
 18 19  1  0
 17 20  2  0
 20  3  1  0
 20 21  1  0
 21 22  1  0
M  END
> <Smiles>
COc1cc(C(=O)c2cc(N)ccc2Cl)cc(OC)c1OC

> <ID>
CHEMBL99862

> <standard_value>
157

> <IC50_uM>
0.157

> <Activity>
Yes

> <pIC50>
0.804100348

> <BCI>
1

$$$$

  SciTegic03012415362D

 23 24  0  0  0  0            999 V2000
    2.5951   -3.0031    0.0000 C   0  0
    2.5973   -1.5031    0.0000 O   0  0
    1.2990   -0.7500    0.0000 C   0  0
    1.2990    0.7500    0.0000 C   0  0
    0.0000    1.5000    0.0000 C   0  0
    0.0000    3.0000    0.0000 N   0  0
   -1.2990    0.7500    0.0000 C   0  0
   -1.2990   -0.7500    0.0000 C   0  0
   -2.5972   -1.5031    0.0000 C   0  0
   -3.8976   -0.7554    0.0000 O   0  0
   -2.5951   -3.0039    0.0000 C   0  0
   -3.8915   -3.7585    0.0000 C   0  0
   -3.8863   -5.2585    0.0000 C   0  0
   -5.1850   -6.0107    0.0000 O   0  0
   -6.4856   -5.2634    0.0000 C   0  0
   -2.5847   -6.0040    0.0000 C   0  0
   -2.5764   -7.5048    0.0000 O   0  0
   -1.2737   -8.2485    0.0000 C   0  0
   -1.2883   -5.2495    0.0000 C   0  0
    0.0156   -5.9927    0.0000 O   0  0
    1.3110   -5.2364    0.0000 C   0  0
   -1.2935   -3.7495    0.0000 C   0  0
    0.0000   -1.5000    0.0000 C   0  0
  1  2  1  0
  2  3  1  0
  3  4  2  0
  4  5  1  0
  5  6  1  0
  5  7  2  0
  7  8  1  0
  8  9  1  0
  9 10  2  0
  9 11  1  0
 11 12  2  0
 12 13  1  0
 13 14  1  0
 14 15  1  0
 13 16  2  0
 16 17  1  0
 17 18  1  0
 16 19  1  0
 19 20  1  0
 20 21  1  0
 19 22  2  0
 22 11  1  0
  8 23  2  0
 23  3  1  0
M  END
> <Smiles>
COc1cc(N)cc(C(=O)c2cc(OC)c(OC)c(OC)c2)c1

> <ID>
CHEMBL101404

> <standard_value>
157

> <IC50_uM>
0.157

> <Activity>
Yes

> <pIC50>
0.804100348

> <BCI>
1

$$$$

  SciTegic03012415362D

 23 24  0  0  0  0            999 V2000
    3.8983   -0.7459    0.0000 C   0  0
    2.6003   -1.4977    0.0000 O   0  0
    1.2990   -0.7500    0.0000 C   0  0
    1.2990    0.7500    0.0000 C   0  0
    0.0000    1.5000    0.0000 C   0  0
   -1.2990    0.7500    0.0000 C   0  0
   -2.6003    1.4977    0.0000 C   0  0
   -2.6030    2.9977    0.0000 O   0  0
   -3.8990    0.7455    0.0000 C   0  0
   -5.2007    1.4909    0.0000 C   0  0
   -6.4972    0.7364    0.0000 C   0  0
   -7.7980    1.4850    0.0000 O   0  0
   -7.8010    2.9850    0.0000 C   0  0
   -6.4920   -0.7636    0.0000 C   0  0
   -7.7876   -1.5212    0.0000 O   0  0
   -7.7802   -3.0212    0.0000 C   0  0
   -5.1903   -1.5091    0.0000 C   0  0
   -5.1821   -3.0099    0.0000 O   0  0
   -3.8794   -3.7535    0.0000 C   0  0
   -3.8939   -0.7546    0.0000 C   0  0
   -1.2990   -0.7500    0.0000 C   0  0
    0.0000   -1.5000    0.0000 C   0  0
    0.0000   -3.0000    0.0000 O   0  0
  1  2  1  0
  2  3  1  0
  3  4  2  0
  4  5  1  0
  5  6  2  0
  6  7  1  0
  7  8  2  0
  7  9  1  0
  9 10  2  0
 10 11  1  0
 11 12  1  0
 12 13  1  0
 11 14  2  0
 14 15  1  0
 15 16  1  0
 14 17  1  0
 17 18  1  0
 18 19  1  0
 17 20  2  0
 20  9  1  0
  6 21  1  0
 21 22  2  0
 22  3  1  0
 22 23  1  0
M  END
> <Smiles>
COc1ccc(C(=O)c2cc(OC)c(OC)c(OC)c2)cc1O

> <ID>
CHEMBL276625

> <standard_value>
170

> <IC50_uM>
0.17

> <Activity>
Yes

> <pIC50>
0.769551079

> <BCI>
1

$$$$

  SciTegic03012415362D

 22 23  0  0  0  0            999 V2000
    3.8983   -0.7459    0.0000 C   0  0
    2.6003   -1.4977    0.0000 O   0  0
    1.2990   -0.7500    0.0000 C   0  0
    1.2990    0.7500    0.0000 C   0  0
    0.0000    1.5000    0.0000 C   0  0
   -0.0031    3.0008    0.0000 C   0  0
    1.2946    3.7531    0.0000 O   0  0
   -1.3039    3.7494    0.0000 C   0  0
   -2.6005    2.9949    0.0000 C   0  0
   -3.9021    3.7404    0.0000 C   0  0
   -5.1985    2.9859    0.0000 Cl  0  0
   -3.9073    5.2404    0.0000 C   0  0
   -2.6108    5.9949    0.0000 C   0  0
   -1.3092    5.2494    0.0000 C   0  0
   -0.0128    6.0039    0.0000 N   0  0
   -1.2990    0.7500    0.0000 C   0  0
   -1.2990   -0.7500    0.0000 C   0  0
   -2.6003   -1.4978    0.0000 O   0  0
   -3.8983   -0.7459    0.0000 C   0  0
    0.0000   -1.5000    0.0000 C   0  0
    0.0031   -3.0008    0.0000 O   0  0
    1.3032   -3.7490    0.0000 C   0  0
  1  2  1  0
  2  3  1  0
  3  4  2  0
  4  5  1  0
  5  6  1  0
  6  7  2  0
  6  8  1  0
  8  9  2  0
  9 10  1  0
 10 11  1  0
 10 12  2  0
 12 13  1  0
 13 14  2  0
 14  8  1  0
 14 15  1  0
  5 16  2  0
 16 17  1  0
 17 18  1  0
 18 19  1  0
 17 20  2  0
 20  3  1  0
 20 21  1  0
 21 22  1  0
M  END
> <Smiles>
COc1cc(C(=O)c2cc(Cl)ccc2N)cc(OC)c1OC

> <ID>
CHEMBL8953

> <standard_value>
185

> <IC50_uM>
0.185

> <Activity>
Yes

> <pIC50>
0.732828272

> <BCI>
1

$$$$

  SciTegic03012415362D

 24 27  0  0  1  0            999 V2000
    5.1996   -1.4928    0.0000 C   0  0
    3.8990   -0.7455    0.0000 C   0  0
    3.8964    0.7545    0.0000 C   0  0
    2.6003   -1.4977    0.0000 C   0  0
    1.2990   -0.7500    0.0000 C   0  0
    1.2990    0.7500    0.0000 C   0  0
    0.0000    1.5000    0.0000 C   0  0
   -1.2990    0.7500    0.0000 C   0  0
   -1.2990   -0.7500    0.0000 C   0  0
    0.0000   -1.5000    0.0000 C   0  0
    0.0000   -3.0000    0.0000 O   0  0
   -2.5981    1.5000    0.0000 C   0  0
   -2.5981    3.0000    0.0000 C   0  0
   -1.2991    3.7500    0.0000 C   0  0  2  0  0  0
    0.0000    3.0000    0.0000 C   0  0  2  0  0  0
    1.2990    3.7500    0.0000 C   0  0
    1.2990    5.2500    0.0000 C   0  0
    0.0000    6.0000    0.0000 C   0  0  2  0  0  0
    1.2211    6.8711    0.0000 C   0  0
   -0.2851    7.4666    0.0000 C   0  0  1  0  0  0
    0.7318    8.5693    0.0000 O   0  0
   -1.7759    7.6329    0.0000 C   0  0
   -2.3947    6.2665    0.0000 C   0  0
   -1.2991    5.2500    0.0000 C   0  0  1  0  0  0
  1  2  1  0
  2  3  1  0
  2  4  1  0
  4  5  1  0
  5  6  2  0
  6  7  1  0
  7  8  2  0
  8  9  1  0
  9 10  2  0
 10  5  1  0
 10 11  1  0
  8 12  1  0
 12 13  1  0
 14 13  1  1
 14 15  1  0
 15  7  1  0
 15 16  1  6
 16 17  1  0
 17 18  1  0
 18 19  1  6
 18 20  1  0
 20 21  1  6
 20 22  1  0
 22 23  1  0
 24 23  1  6
 24 14  1  0
 24 18  1  0
M  END
> <Smiles>
CC(C)Cc1cc2c(cc1O)CC[C@@H]1[C@@H]2CC[C@]2(C)[C@@H](O)CC[C@@H]12

> <ID>
CHEMBL1627446

> <standard_value>
20000

> <IC50_uM>
20

> <Activity>
No

> <pIC50>
4.698970004

> <BCI>
0

$$$$

  SciTegic03012415362D

 25 28  0  0  1  0            999 V2000
    7.7996   -1.4883    0.0000 C   0  0
    6.4990   -0.7409    0.0000 C   0  0
    5.2003   -1.4932    0.0000 C   0  0
    3.8990   -0.7455    0.0000 C   0  0
    2.6003   -1.4977    0.0000 C   0  0
    1.2990   -0.7500    0.0000 C   0  0
    1.2990    0.7500    0.0000 C   0  0
    0.0000    1.5000    0.0000 C   0  0
   -1.2990    0.7500    0.0000 C   0  0
   -1.2990   -0.7500    0.0000 C   0  0
    0.0000   -1.5000    0.0000 C   0  0
    0.0000   -3.0000    0.0000 O   0  0
   -2.5981    1.5000    0.0000 C   0  0
   -2.5981    3.0000    0.0000 C   0  0
   -1.2991    3.7500    0.0000 C   0  0  2  0  0  0
    0.0000    3.0000    0.0000 C   0  0  2  0  0  0
    1.2990    3.7500    0.0000 C   0  0
    1.2990    5.2500    0.0000 C   0  0
    0.0000    6.0000    0.0000 C   0  0  2  0  0  0
    1.2211    6.8711    0.0000 C   0  0
   -0.2851    7.4666    0.0000 C   0  0  1  0  0  0
    0.7318    8.5693    0.0000 O   0  0
   -1.7759    7.6329    0.0000 C   0  0
   -2.3947    6.2665    0.0000 C   0  0
   -1.2991    5.2500    0.0000 C   0  0  1  0  0  0
  1  2  1  0
  2  3  1  0
  3  4  1  0
  4  5  2  0
  5  6  1  0
  6  7  2  0
  7  8  1  0
  8  9  2  0
  9 10  1  0
 10 11  2  0
 11  6  1  0
 11 12  1  0
  9 13  1  0
 13 14  1  0
 15 14  1  1
 15 16  1  0
 16  8  1  0
 16 17  1  6
 17 18  1  0
 18 19  1  0
 19 20  1  6
 19 21  1  0
 21 22  1  6
 21 23  1  0
 23 24  1  0
 25 24  1  6
 25 15  1  0
 25 19  1  0
M  END
> <Smiles>
CCC/C=C/c1cc2c(cc1O)CC[C@@H]1[C@@H]2CC[C@]2(C)[C@@H](O)CC[C@@H]12

> <ID>
CHEMBL1627434

> <standard_value>
20000

> <IC50_uM>
20

> <Activity>
No

> <pIC50>
4.698970004

> <BCI>
0

$$$$

  SciTegic03012415362D

 32 33  0  0  0  0            999 V2000
   19.4982   -0.7187    0.0000 C   0  0
   18.2002   -1.4705    0.0000 C   0  0
   16.8989   -0.7228    0.0000 C   0  0
   15.6002   -1.4751    0.0000 C   0  0
   14.2989   -0.7273    0.0000 C   0  0
   13.0002   -1.4796    0.0000 C   0  0
   11.6990   -0.7319    0.0000 C   0  0
   10.4003   -1.4841    0.0000 C   0  0
    9.0990   -0.7364    0.0000 C   0  0
    7.8003   -1.4887    0.0000 C   0  0
    6.4990   -0.7409    0.0000 C   0  0
    5.2003   -1.4932    0.0000 C   0  0
    3.8990   -0.7455    0.0000 N   0  0
    2.6003   -1.4977    0.0000 C   0  0
    2.6030   -2.9977    0.0000 O   0  0
    1.2990   -0.7500    0.0000 C   0  0
    1.2990    0.7500    0.0000 C   0  0
    0.0000    1.5000    0.0000 C   0  0
   -0.0031    3.0008    0.0000 N   0  0
   -1.3039    3.7494    0.0000 C   0  0
   -1.3070    5.2502    0.0000 C   0  0
   -0.0080    6.0003    0.0000 C   0  0
   -0.0080    7.5003    0.0000 C   0  0
    1.2910    8.2504    0.0000 O   0  0
   -1.3071    8.2503    0.0000 C   0  0
   -2.6061    7.5003    0.0000 C   0  0
   -2.6061    6.0003    0.0000 C   0  0
   -3.9051    5.2503    0.0000 O   0  0
   -1.2990    0.7500    0.0000 C   0  0
   -1.2990   -0.7500    0.0000 C   0  0
    0.0000   -1.5000    0.0000 C   0  0
    0.0000   -3.0000    0.0000 O   0  0
  1  2  1  0
  2  3  1  0
  3  4  1  0
  4  5  1  0
  5  6  1  0
  6  7  1  0
  7  8  1  0
  8  9  1  0
  9 10  1  0
 10 11  1  0
 11 12  1  0
 12 13  1  0
 13 14  1  0
 14 15  2  0
 14 16  1  0
 16 17  2  0
 17 18  1  0
 18 19  1  0
 19 20  1  0
 20 21  1  0
 21 22  2  0
 22 23  1  0
 23 24  1  0
 23 25  2  0
 25 26  1  0
 26 27  2  0
 27 21  1  0
 27 28  1  0
 18 29  2  0
 29 30  1  0
 30 31  2  0
 31 16  1  0
 31 32  1  0
M  END
> <Smiles>
CCCCCCCCCCCCNC(=O)c1cc(NCc2cc(O)ccc2O)ccc1O

> <ID>
CHEMBL138340

> <standard_value>
20000

> <IC50_uM>
20

> <Activity>
No

> <pIC50>
4.698970004

> <BCI>
0

$$$$

  SciTegic03012415362D

 20 20  0  0  0  0            999 V2000
    9.0983   -0.7529    0.0000 C   0  0
    7.7988   -1.5020    0.0000 C   0  0
    6.4990   -0.7516    0.0000 N   0  0
    6.5026    0.7492    0.0000 C   0  0
    7.8029    1.4969    0.0000 C   0  0
    5.1988   -1.5012    0.0000 C   0  0
    5.1983   -3.0012    0.0000 S   0  0
    3.8990   -0.7508    0.0000 S   0  0
    2.5988   -1.5004    0.0000 S   0  0
    2.5983   -3.0004    0.0000 O   0  0
    3.8975   -2.2510    0.0000 O   0  0
    1.2990   -0.7500    0.0000 C   0  0
    1.2990    0.7500    0.0000 C   0  0
    0.0000    1.5000    0.0000 C   0  0
   -1.2990    0.7500    0.0000 C   0  0
   -2.6003    1.4977    0.0000 N   0  3
   -3.8983    0.7459    0.0000 O   0  0
   -2.6030    2.9977    0.0000 O   0  5
   -1.2990   -0.7500    0.0000 C   0  0
    0.0000   -1.5000    0.0000 C   0  0
  1  2  1  0
  2  3  1  0
  3  4  1  0
  4  5  1  0
  3  6  1  0
  6  7  2  0
  6  8  1  0
  8  9  1  0
  9 10  2  0
  9 11  2  0
  9 12  1  0
 12 13  2  0
 13 14  1  0
 14 15  2  0
 15 16  1  0
 16 17  2  0
 16 18  1  0
 15 19  1  0
 19 20  2  0
 20 12  1  0
M  CHG  2  16   1  18  -1
M  END
> <Smiles>
CCN(CC)C(=S)SS(=O)(=O)c1ccc([N+](=O)[O-])cc1

> <ID>
CHEMBL291716

> <standard_value>
20000

> <IC50_uM>
20

> <Activity>
No

> <pIC50>
4.698970004

> <BCI>
0

$$$$

  SciTegic03012415362D

 21 23  0  0  0  0            999 V2000
    2.5532   -4.4223    0.0000 O   0  0
    1.8032   -3.1233    0.0000 C   0  0
    2.4133   -1.7530    0.0000 O   0  0
    1.2990   -0.7500    0.0000 C   0  0
    1.2990    0.7500    0.0000 C   0  0
    0.0000    1.5000    0.0000 C   0  0
   -1.2990    0.7500    0.0000 C   0  0
   -2.5981    1.5000    0.0000 O   0  0
   -1.2990   -0.7500    0.0000 C   0  0
    0.0000   -1.5000    0.0000 C   0  0
    0.3114   -2.9665    0.0000 C   0  0
   -0.6890   -4.0818    0.0000 C   0  0
   -2.1578   -3.7735    0.0000 C   0  0
   -3.1610   -4.8886    0.0000 C   0  0
   -4.6284   -4.5775    0.0000 C   0  0
   -5.6316   -5.6927    0.0000 O   0  0
   -5.0926   -3.1511    0.0000 C   0  0
   -6.5600   -2.8399    0.0000 O   0  0
   -4.0895   -2.0359    0.0000 C   0  0
   -4.5537   -0.6095    0.0000 O   0  0
   -2.6221   -2.3471    0.0000 C   0  0
  1  2  2  0
  2  3  1  0
  3  4  1  0
  4  5  2  0
  5  6  1  0
  6  7  2  0
  7  8  1  0
  7  9  1  0
  9 10  2  0
 10  4  1  0
 10 11  1  0
 11  2  1  0
 11 12  2  0
 12 13  1  0
 13 14  2  0
 14 15  1  0
 15 16  1  0
 15 17  2  0
 17 18  1  0
 17 19  1  0
 19 20  1  0
 19 21  2  0
 21 13  1  0
M  END
> <Smiles>
O=C1Oc2ccc(O)cc2/C1=C\c1cc(O)c(O)c(O)c1

> <ID>
CHEMBL372661

> <standard_value>
20000

> <IC50_uM>
20

> <Activity>
No

> <pIC50>
4.698970004

> <BCI>
0

$$$$

  SciTegic03012415362D

 40 43  0  0  1  0            999 V2000
    3.8983   -0.7512    0.0000 C   0  0
    2.5988   -1.5004    0.0000 C   0  0
    2.5983   -3.0004    0.0000 C   0  0
    3.8975   -2.2510    0.0000 C   0  0
    1.2990   -0.7500    0.0000 C   0  0
    1.2990    0.7500    0.0000 C   0  0
    0.0000    1.5000    0.0000 C   0  0
   -1.2990    0.7500    0.0000 C   0  0
   -2.6003    1.4977    0.0000 O   0  0
   -3.8990    0.7455    0.0000 C   0  0
   -5.2003    1.4932    0.0000 C   0  0  1  0  0  0
   -5.2060    2.9940    0.0000 C   0  0
   -6.5082    3.7403    0.0000 N   0  0
   -7.8563    3.1122    0.0000 C   0  0
   -8.8658    4.2217    0.0000 C   0  0
   -8.1226    5.5246    0.0000 N   0  0
   -6.6538    5.2204    0.0000 C   0  0
   -5.5400    6.2225    0.0000 N   0  3
   -5.8503    7.6900    0.0000 O   0  0
   -4.1138    5.7579    0.0000 O   0  5
   -6.4990    0.7409    0.0000 O   0  0
   -7.8003    1.4887    0.0000 C   0  0
   -7.8020    2.4887    0.0000 O   0  0
   -9.0990    0.7364    0.0000 C   0  0
  -10.4007    1.4818    0.0000 C   0  0
  -11.6971    0.7273    0.0000 C   0  0
  -11.6919   -0.7727    0.0000 C   0  0
  -12.9875   -1.5302    0.0000 N   0  0
  -12.9802   -3.0311    0.0000 C   0  0
  -14.2758   -3.7886    0.0000 C   0  0
  -14.4085   -5.2699    0.0000 C   0  0
  -13.2844   -6.2631    0.0000 O   0  0
  -15.8746   -5.5869    0.0000 C   0  0
  -16.6291   -4.2905    0.0000 C   0  0
  -15.6293   -3.1723    0.0000 C   0  0
  -15.9375   -1.7043    0.0000 O   0  0
  -10.3903   -1.5182    0.0000 C   0  0
   -9.0939   -0.7637    0.0000 C   0  0
   -1.2990   -0.7500    0.0000 C   0  0
    0.0000   -1.5000    0.0000 C   0  0
  1  2  1  0
  2  3  1  0
  2  4  1  0
  2  5  1  0
  5  6  2  0
  6  7  1  0
  7  8  2  0
  8  9  1  0
  9 10  1  0
 11 10  1  6
 11 12  1  0
 12 13  1  0
 13 14  1  0
 14 15  2  0
 15 16  1  0
 16 17  2  0
 17 13  1  0
 17 18  1  0
 18 19  2  0
 18 20  1  0
 11 21  1  0
 21 22  1  0
 22 23  2  0
 22 24  1  0
 24 25  2  0
 25 26  1  0
 26 27  2  0
 27 28  1  0
 28 29  1  0
 29 30  2  0
 30 31  1  0
 31 32  2  0
 31 33  1  0
 33 34  2  0
 34 35  1  0
 35 30  1  0
 35 36  2  0
 27 37  1  0
 37 38  2  0
 38 24  1  0
  8 39  1  0
 39 40  2  0
 40  5  1  0
M  CHG  2  18   1  20  -1
M  END
> <Smiles>
CC(C)(C)c1ccc(OC[C@@H](Cn2ccnc2[N+](=O)[O-])OC(=O)c2ccc(NC=C3C(=O)C=CC3=O)cc2)cc1

> <ID>
CHEMBL490266

> <standard_value>
20000

> <IC50_uM>
20

> <Activity>
No

> <pIC50>
4.698970004

> <BCI>
0

$$$$

  SciTegic03012415362D

 24 27  0  0  0  0            999 V2000
    1.2948   -3.7516    0.0000 O   0  0
    2.5951   -3.0039    0.0000 C   0  0
    3.8933   -3.7570    0.0000 C   0  0
    3.8912   -5.2570    0.0000 O   0  0
    2.5973   -1.5031    0.0000 C   0  0
    1.2990   -0.7500    0.0000 N   0  0
    1.2990    0.7500    0.0000 C   0  0
    0.0000    1.5000    0.0000 C   0  0
   -1.2990    0.7500    0.0000 C   0  0
   -2.5981    1.5000    0.0000 C   0  0
   -3.8971    0.7500    0.0000 C   0  0
   -3.8971   -0.7500    0.0000 C   0  0
   -2.5981   -1.5000    0.0000 C   0  0
   -1.2990   -0.7500    0.0000 C   0  0
    0.0000   -1.5000    0.0000 C   0  0
    0.0000   -3.0000    0.0000 O   0  0
    0.3114    2.9665    0.0000 C   0  0
   -0.6924    4.0811    0.0000 O   0  0
    1.8032    3.1233    0.0000 C   0  0
    2.6837    4.3363    0.0000 C   0  0
    4.1755    4.1795    0.0000 C   0  0
    4.7856    2.8092    0.0000 C   0  0
    3.9040    1.5957    0.0000 C   0  0
    2.4133    1.7530    0.0000 C   0  0
  1  2  2  0
  2  3  1  0
  3  4  1  0
  2  5  1  0
  5  6  1  0
  6  7  1  0
  7  8  2  0
  8  9  1  0
  9 10  2  0
 10 11  1  0
 11 12  2  0
 12 13  1  0
 13 14  2  0
 14  9  1  0
 14 15  1  0
 15  6  1  0
 15 16  2  0
  8 17  1  0
 17 18  2  0
 17 19  1  0
 19 20  2  0
 20 21  1  0
 21 22  2  0
 22 23  1  0
 23 24  2  0
 24 19  1  0
 24  7  1  0
M  END
> <Smiles>
O=C(CO)Cn1c2c(c3ccccc3c1=O)C(=O)c1ccccc1-2

> <ID>
CHEMBL1822033

> <standard_value>
20000

> <IC50_uM>
20

> <Activity>
No

> <pIC50>
4.698970004

> <BCI>
0

$$$$

  SciTegic03012415362D

 16 17  0  0  0  0            999 V2000
    7.3217   -3.0628    0.0000 O   0  0
    6.4437   -1.8466    0.0000 C   0  0
    4.9531   -1.9978    0.0000 N   0  0
    4.2010   -3.2956    0.0000 C   0  0
    2.7343   -2.9815    0.0000 C   0  0
    2.5987   -1.5004    0.0000 N   0  0
    1.2990   -0.7500    0.0000 C   0  0
    1.2990    0.7500    0.0000 C   0  0
    0.0000    1.5000    0.0000 C   0  0
    0.0000    3.0000    0.0000 Cl  0  0
   -1.2990    0.7500    0.0000 C   0  0
   -1.2990   -0.7500    0.0000 C   0  0
   -2.5981   -1.5000    0.0000 Cl  0  0
    0.0000   -1.5000    0.0000 C   0  0
    3.9511   -0.8815    0.0000 C   0  0
    4.2566    0.5871    0.0000 S   0  0
  1  2  2  0
  2  3  1  0
  3  4  1  0
  4  5  1  0
  5  6  1  0
  6  7  1  0
  7  8  2  0
  8  9  1  0
  9 10  1  0
  9 11  2  0
 11 12  1  0
 12 13  1  0
 12 14  2  0
 14  7  1  0
  6 15  1  0
 15  3  1  0
 15 16  2  0
M  END
> <Smiles>
O=CN1CCN(c2cc(Cl)cc(Cl)c2)C1=S

> <ID>
CHEMBL442586

> <standard_value>
20200

> <IC50_uM>
20.2

> <Activity>
No

> <pIC50>
4.694648631

> <BCI>
0

$$$$

  SciTegic03012415362D

 31 33  0  0  1  0            999 V2000
   -5.8433   -4.4361    0.0000 C   0  0
   -4.4358   -4.9547    0.0000 O   0  0
   -3.2817   -3.9952    0.0000 C   0  0
   -3.5359   -2.5169    0.0000 O   0  0
   -1.8734   -4.5141    0.0000 C   0  0
   -1.6218   -5.9928    0.0000 C   0  0
   -0.2154   -6.5143    0.0000 C   0  0
    0.9395   -5.5571    0.0000 C   0  0
    0.6879   -4.0783    0.0000 C   0  0
   -0.7185   -3.5567    0.0000 C   0  0
   -0.9682   -2.0768    0.0000 S   0  0
    0.1900   -1.1200    0.0000 C   0  0  2  0  0  0
    1.3300   -1.6300    0.0000 C   0  0
    2.3100   -1.1700    0.0000 C   0  0
    3.5183   -2.0588    0.0000 O   0  0
    2.5200    0.3600    0.0000 O   0  0
    4.1500    0.6800    0.0000 C   0  0  1  0  0  0
    5.3192   -0.2597    0.0000 C   0  0
    4.1100    2.4200    0.0000 C   0  0
    2.6000    2.8000    0.0000 C   0  0
    2.3100    4.3400    0.0000 C   0  0
    0.3300    4.3600    0.0000 C   0  0
    0.0000    2.8600    0.0000 C   0  0
   -1.5600    2.3300    0.0000 C   0  0  2  0  0  0
   -3.0100    2.8100    0.0000 C   0  0
   -3.9100    1.5700    0.0000 C   0  0  2  0  0  0
   -5.4100    1.5671    0.0000 O   0  0
   -3.0100    0.3400    0.0000 C   0  0
   -1.5600    0.8100    0.0000 C   0  0  1  0  0  0
    0.0000    0.3600    0.0000 C   0  0  2  0  0  0
    1.1387    1.3364    0.0000 O   0  0
  1  2  1  0
  2  3  1  0
  3  4  2  0
  3  5  1  0
  5  6  2  0
  6  7  1  0
  7  8  2  0
  8  9  1  0
  9 10  2  0
 10  5  1  0
 10 11  1  0
 12 11  1  1
 12 13  1  0
 13 14  1  0
 14 15  2  0
 14 16  1  0
 16 17  1  0
 17 18  1  6
 17 19  1  0
 19 20  1  0
 20 21  1  0
 21 22  1  0
 22 23  2  0
 24 23  1  1
 24 25  1  0
 25 26  1  0
 26 27  1  1
 26 28  1  0
 29 28  1  6
 29 24  1  0
 29 30  1  0
 30 12  1  0
 30 31  1  6
M  END
> <Smiles>
COC(=O)c1ccccc1S[C@@H]1CC(=O)O[C@@H](C)CCC/C=C/[C@@H]2C[C@H](O)C[C@H]2[C@@H]1O

> <ID>
CHEMBL340706

> <standard_value>
20400

> <IC50_uM>
20.4

> <Activity>
No

> <pIC50>
4.690369833

> <BCI>
0

$$$$

  SciTegic03012415362D

 47 52  0  0  1  0            999 V2000
   10.1386    0.4303    0.0000 C   0  0
    8.8395   -0.3195    0.0000 C   0  0
    8.8397   -1.8195    0.0000 C   0  0
    7.5394    0.4303    0.0000 C   0  0
    6.2395   -0.3199    0.0000 C   0  0
    6.2397   -1.8199    0.0000 O   0  0
    4.9394    0.4299    0.0000 O   0  0
    3.6400   -0.3200    0.0000 C   0  0  1  0  0  0
    3.6400   -1.8700    0.0000 C   0  0
    4.9392   -2.6198    0.0000 O   0  0
    2.2900   -2.6500    0.0000 O   0  0
    0.9500   -1.8700    0.0000 C   0  0  2  0  0  0
   -0.4000   -2.6500    0.0000 C   0  0
   -1.7400   -1.8700    0.0000 C   0  0  1  0  0  0
   -3.0900   -2.6500    0.0000 C   0  0  2  0  0  0
   -3.0900   -4.1500    0.0000 C   0  0
   -4.4400   -1.8700    0.0000 C   0  0
   -5.7392   -2.6198    0.0000 O   0  0
   -4.4400   -0.3200    0.0000 C   0  0
   -5.7363    0.4353    0.0000 O   0  0
   -5.7313    1.9361    0.0000 C   0  0  2  0  0  0
   -4.4282    2.6792    0.0000 O   0  0
   -4.4202    4.1792    0.0000 C   0  0  2  0  0  0
   -3.1149    4.9200    0.0000 C   0  0
   -1.8210    4.1612    0.0000 O   0  0
   -5.7152    4.9361    0.0000 C   0  0  1  0  0  0
   -5.7072    6.4361    0.0000 O   0  0
   -7.0182    4.1931    0.0000 C   0  0  2  0  0  0
   -8.3132    4.9501    0.0000 O   0  0
   -7.0263    2.6931    0.0000 C   0  0  1  0  0  0
   -8.3293    1.9501    0.0000 O   0  0
   -3.0900    0.4500    0.0000 C   0  0
   -1.7400   -0.3200    0.0000 C   0  0  1  0  0  0
   -1.7424    1.1800    0.0000 C   0  0
   -0.4000    0.4500    0.0000 C   0  0  1  0  0  0
   -0.4000    2.0000    0.0000 C   0  0  1  0  0  0
   -1.6992    2.7498    0.0000 O   0  0
    0.9500    2.7800    0.0000 C   0  0  2  0  0  0
    0.9524    4.2800    0.0000 O   0  0
    2.2900    2.0000    0.0000 C   0  0  2  0  0  0
    1.5148    3.3015    0.0000 C   0  0
    2.2668    4.5994    0.0000 O   0  0
    0.0148    3.3042    0.0000 O   0  0
    0.9600    1.8100    0.0000 O   0  0
    0.3700    0.7400    0.0000 C   0  0
    0.9500   -0.3200    0.0000 C   0  0  1  0  0  0
    2.2900    0.4500    0.0000 C   0  0  1  0  0  0
  1  2  1  0
  2  3  1  0
  2  4  1  0
  4  5  1  0
  5  6  2  0
  5  7  1  0
  8  7  1  1
  8  9  1  0
  9 10  2  0
  9 11  1  0
 12 11  1  6
 12 13  1  0
 14 13  1  1
 14 15  1  0
 15 16  1  6
 15 17  1  0
 17 18  2  0
 17 19  1  0
 19 20  1  0
 21 20  1  1
 21 22  1  0
 22 23  1  0
 23 24  1  1
 24 25  1  0
 23 26  1  0
 26 27  1  6
 26 28  1  0
 28 29  1  1
 28 30  1  0
 30 21  1  0
 30 31  1  6
 19 32  2  0
 32 33  1  0
 33 14  1  0
 33 34  1  1
 35 33  1  1
 35 36  1  0
 36 37  1  1
 36 38  1  0
 38 39  1  6
 38 40  1  0
 40 41  1  6
 41 42  2  0
 41 43  1  0
 40 44  1  0
 44 45  1  0
 46 45  1  1
 46 35  1  0
 46 12  1  0
 47 46  1  6
 47  8  1  0
 47 40  1  0
M  END
> <Smiles>
CC(C)CC(=O)O[C@H]1C(=O)O[C@@H]2C[C@H]3[C@H](C)C(=O)C(O[C@@H]4O[C@H](CO)[C@@H](O)[C@H](O)[C@H]4O)=C[C@]3(C)[C@H]3[C@@H](O)[C@H](O)[C@]4(C(=O)O)OC[C@]32[C@@H]14

> <ID>
CHEMBL450651

> <standard_value>
20417.38

> <IC50_uM>
20.41738

> <Activity>
No

> <pIC50>
4.689999988

> <BCI>
0

$$$$

  SciTegic03012415362D

 33 37  0  0  0  0            999 V2000
    2.5951   -3.0031    0.0000 C   0  0
    2.5973   -1.5031    0.0000 O   0  0
    1.2990   -0.7500    0.0000 C   0  0
    1.2990    0.7500    0.0000 C   0  0
    0.0000    1.5000    0.0000 C   0  0
   -1.2990    0.7500    0.0000 C   0  0
   -1.2990   -0.7500    0.0000 C   0  0
    0.0000   -1.5000    0.0000 C   0  0
   -2.7248   -1.2135    0.0000 N   0  0
   -3.6065    0.0000    0.0000 C   0  0
   -5.0972    0.1560    0.0000 C   0  0
   -5.9786   -1.0577    0.0000 C   0  0
   -5.7073    1.5264    0.0000 C   0  0
   -7.1996    1.6863    0.0000 O   0  0
   -7.8081    3.0582    0.0000 S   0  0
   -6.9243    4.2702    0.0000 O   0  0
   -6.3166    2.8991    0.0000 O   0  0
   -9.3004    3.2182    0.0000 C   0  0
  -10.1846    2.0065    0.0000 C   0  0
  -11.6760    2.1663    0.0000 C   0  0
  -12.2833    3.5379    0.0000 C   0  0
  -11.3991    4.7496    0.0000 C   0  0
  -12.0064    6.1212    0.0000 C   0  0
  -13.4984    6.2842    0.0000 N   0  0
  -14.1037    7.6567    0.0000 C   0  0
  -14.3847    5.0741    0.0000 C   0  0
  -11.1222    7.3329    0.0000 C   0  0
   -9.6308    7.1730    0.0000 C   0  0
   -9.0235    5.8015    0.0000 C   0  0
   -9.9077    4.5898    0.0000 C   0  0
   -4.8257    2.7399    0.0000 C   0  0
   -3.3339    2.5831    0.0000 C   0  0
   -2.7248    1.2135    0.0000 C   0  0
  1  2  1  0
  2  3  1  0
  3  4  2  0
  4  5  1  0
  5  6  2  0
  6  7  1  0
  7  8  2  0
  8  3  1  0
  7  9  1  0
  9 10  1  0
 10 11  2  0
 11 12  1  0
 11 13  1  0
 13 14  1  0
 14 15  1  0
 15 16  2  0
 15 17  2  0
 15 18  1  0
 18 19  2  0
 19 20  1  0
 20 21  2  0
 21 22  1  0
 22 23  2  0
 23 24  1  0
 24 25  1  0
 24 26  1  0
 23 27  1  0
 27 28  2  0
 28 29  1  0
 29 30  2  0
 30 18  1  0
 30 22  1  0
 13 31  2  0
 31 32  1  0
 32 33  2  0
 33 10  1  0
 33  6  1  0
M  END
> <Smiles>
COc1ccc2c(c1)[nH]c1c(C)c(OS(=O)(=O)c3cccc4c(N(C)C)cccc34)ccc12

> <ID>
CHEMBL589775

> <standard_value>
20700

> <IC50_uM>
20.7

> <Activity>
No

> <pIC50>
4.684029655

> <BCI>
0

$$$$

  SciTegic03012415362D

 29 33  0  0  1  0            999 V2000
    3.8983   -0.7459    0.0000 C   0  0
    2.6003   -1.4977    0.0000 O   0  0
    1.2990   -0.7500    0.0000 C   0  0
    1.2990    0.7500    0.0000 C   0  0
    0.0000    1.5000    0.0000 C   0  0
   -1.2990    0.7500    0.0000 C   0  0
   -1.2990   -0.7500    0.0000 C   0  0
   -2.5972   -1.5031    0.0000 O   0  0
   -2.5951   -3.0031    0.0000 C   0  0
    0.0000   -1.5000    0.0000 C   0  0
    0.0031   -3.0008    0.0000 O   0  0
    1.3032   -3.7490    0.0000 C   0  0
   -2.5981    1.5000    0.0000 O   0  0
   -2.5981    3.0000    0.0000 C   0  0
   -1.2991    3.7500    0.0000 C   0  0  1  0  0  0
   -1.2991    5.2500    0.0000 C   0  0  2  0  0  0
   -2.6004    5.9977    0.0000 C   0  0
   -3.8983    5.2459    0.0000 O   0  0
    0.0000    6.0000    0.0000 C   0  0
    1.2990    5.2500    0.0000 C   0  0
    2.5981    6.0000    0.0000 C   0  0
    3.8971    5.2500    0.0000 C   0  0
    3.8971    3.7500    0.0000 C   0  0
    2.5981    3.0000    0.0000 C   0  0
    1.2990    3.7500    0.0000 C   0  0
    0.0000    3.0000    0.0000 C   0  0  1  0  0  0
    5.3228    3.2865    0.0000 O   0  0
    6.2045    4.5000    0.0000 C   0  0
    5.3228    5.7135    0.0000 O   0  0
  1  2  1  0
  2  3  1  0
  3  4  2  0
  4  5  1  0
  5  6  2  0
  6  7  1  0
  7  8  1  0
  8  9  1  0
  7 10  2  0
 10  3  1  0
 10 11  1  0
 11 12  1  0
  6 13  1  0
 13 14  1  0
 15 14  1  1
 15 16  1  0
 16 17  1  6
 17 18  1  0
 16 19  1  0
 19 20  1  0
 20 21  2  0
 21 22  1  0
 22 23  2  0
 23 24  1  0
 24 25  2  0
 25 20  1  0
 26 25  1  1
 26  5  1  0
 26 15  1  0
 23 27  1  0
 27 28  1  0
 28 29  1  0
 29 22  1  0
M  END
> <Smiles>
COc1cc2c(c(OC)c1OC)OC[C@H]1[C@H](CO)Cc3cc4c(cc3[C@@H]21)OCO4

> <ID>
CHEMBL274948

> <standard_value>
20892.96

> <IC50_uM>
20.89296

> <Activity>
No

> <pIC50>
4.680000027

> <BCI>
0

$$$$

  SciTegic03012415362D

 20 22  0  0  0  0            999 V2000
    3.7332   -0.7121    0.0000 O   0  0
    3.1255   -2.0835    0.0000 C   0  0
    1.6332   -2.2426    0.0000 C   0  0
    0.7500   -1.0323    0.0000 C   0  0  3  0  0  0
    1.2135    0.3943    0.0000 S   0  0
    0.0000    1.2760    0.0000 C   0  0
   -0.4623    2.7009    0.0000 N   0  0
   -1.9623    2.7008    0.0000 C   0  0
   -2.4258    1.2743    0.0000 N   0  0
   -1.2135    0.3943    0.0000 N   0  0
   -0.7500   -1.0323    0.0000 C   0  0
   -1.6317   -2.2458    0.0000 O   0  0
    4.0102   -3.2959    0.0000 N   0  0
    5.5026   -3.1368    0.0000 C   0  0
    6.3886   -4.3473    0.0000 C   0  0
    7.8798   -4.1853    0.0000 C   0  0
    8.4852   -2.8129    0.0000 C   0  0
    9.9764   -2.6509    0.0000 Br  0  0
    7.5993   -1.6024    0.0000 C   0  0
    6.1080   -1.7644    0.0000 C   0  0
  1  2  2  0
  2  3  1  0
  4  3  1  4
  4  5  1  0
  5  6  1  0
  6  7  2  0
  7  8  1  0
  8  9  2  0
  9 10  1  0
 10  6  1  0
 10 11  1  0
 11  4  1  0
 11 12  2  0
  2 13  1  0
 13 14  1  0
 14 15  2  0
 15 16  1  0
 16 17  2  0
 17 18  1  0
 17 19  1  0
 19 20  2  0
 20 14  1  0
M  END
> <Smiles>
O=C(CC1Sc2ncnn2C1=O)Nc1ccc(Br)cc1

> <ID>
CHEMBL243652

> <standard_value>
20892.96

> <IC50_uM>
20.89296

> <Activity>
No

> <pIC50>
4.680000027

> <BCI>
0

$$$$

  SciTegic03012415362D

 26 29  0  0  1  0            999 V2000
    5.2029   -2.9932    0.0000 C   0  0
    5.2003   -1.4932    0.0000 C   0  0
    3.8990   -0.7455    0.0000 C   0  0
    2.6003   -1.4977    0.0000 O   0  0
    1.2990   -0.7500    0.0000 C   0  0
    1.2990    0.7500    0.0000 C   0  0
    0.0000    1.5000    0.0000 C   0  0
   -1.2990    0.7500    0.0000 C   0  0
   -1.2990   -0.7500    0.0000 C   0  0
    0.0000   -1.5000    0.0000 C   0  0
    0.0000   -3.0000    0.0000 O   0  0
   -2.5981    1.5000    0.0000 C   0  0
   -2.5981    3.0000    0.0000 C   0  0
   -1.2991    3.7500    0.0000 C   0  0  2  0  0  0
    0.0000    3.0000    0.0000 C   0  0  2  0  0  0
    1.2990    3.7500    0.0000 C   0  0
    1.2990    5.2500    0.0000 C   0  0
    0.0000    6.0000    0.0000 C   0  0  2  0  0  0
    1.2211    6.8711    0.0000 C   0  0
   -0.2851    7.4666    0.0000 C   0  0  1  0  0  0
    0.7318    8.5693    0.0000 O   0  0
   -1.7759    7.6329    0.0000 C   0  0
   -2.3947    6.2665    0.0000 C   0  0
   -1.2991    5.2500    0.0000 C   0  0  1  0  0  0
    6.4990   -0.7409    0.0000 N   0  0
    6.4978    0.7591    0.0000 O   0  0
  1  2  1  0
  2  3  1  0
  3  4  1  0
  4  5  1  0
  5  6  2  0
  6  7  1  0
  7  8  2  0
  8  9  1  0
  9 10  2  0
 10  5  1  0
 10 11  1  0
  8 12  1  0
 12 13  1  0
 14 13  1  1
 14 15  1  0
 15  7  1  0
 15 16  1  6
 16 17  1  0
 17 18  1  0
 18 19  1  6
 18 20  1  0
 20 21  1  6
 20 22  1  0
 22 23  1  0
 24 23  1  6
 24 14  1  0
 24 18  1  0
  2 25  2  0
 25 26  1  0
M  END
> <Smiles>
C/C(COc1cc2c(cc1O)CC[C@@H]1[C@@H]2CC[C@]2(C)[C@@H](O)CC[C@@H]12)=N/O

> <ID>
CHEMBL1627741

> <standard_value>
20900

> <IC50_uM>
20.9

> <Activity>
No

> <pIC50>
4.679853714

> <BCI>
0

$$$$

  SciTegic03012415362D

 22 25  0  0  1  0            999 V2000
    2.6640   -0.1280    0.0000 C   0  0
    1.2990   -0.7500    0.0000 C   0  0  2  0  0  0
    1.2990    0.7500    0.0000 C   0  0
    0.0000    1.5000    0.0000 C   0  0
   -1.2990    0.7500    0.0000 C   0  0  2  0  0  0
   -2.5981    1.5000    0.0000 C   0  0
   -2.5981    3.0000    0.0000 C   0  0
   -3.8972    3.7500    0.0000 C   0  0
   -3.8972    5.2500    0.0000 Br  0  0
   -5.1962    3.0000    0.0000 C   0  0
   -6.4952    3.7500    0.0000 O   0  0
   -5.1962    1.5000    0.0000 C   0  0
   -6.4952    0.7500    0.0000 Br  0  0
   -3.8971    0.7500    0.0000 C   0  0
   -3.8971   -0.7500    0.0000 C   0  0
   -2.5981   -1.5000    0.0000 C   0  0
   -1.2990   -0.7500    0.0000 C   0  0  1  0  0  0
    0.0000   -1.5000    0.0000 C   0  0  2  0  0  0
    0.3326   -2.9571    0.0000 C   0  0
    1.8253   -3.1044    0.0000 C   0  0
    2.4266   -1.7302    0.0000 C   0  0  2  0  0  0
    3.8900   -1.4008    0.0000 O   0  0
  2  1  1  1
  2  3  1  0
  3  4  1  0
  5  4  1  1
  5  6  1  0
  6  7  2  0
  7  8  1  0
  8  9  1  0
  8 10  2  0
 10 11  1  0
 10 12  1  0
 12 13  1  0
 12 14  2  0
 14  6  1  0
 14 15  1  0
 15 16  1  0
 17 16  1  6
 17  5  1  0
 17 18  1  0
 18  2  1  0
 18 19  1  1
 19 20  1  0
 20 21  1  0
 21  2  1  0
 21 22  1  1
M  END
> <Smiles>
C[C@]12CC[C@@H]3c4cc(Br)c(O)c(Br)c4CC[C@H]3[C@@H]1CC[C@@H]2O

> <ID>
CHEMBL1627468

> <standard_value>
21000

> <IC50_uM>
21

> <Activity>
No

> <pIC50>
4.677780705

> <BCI>
0

$$$$

  SciTegic03012415362D

 27 29  0  0  0  0            999 V2000
    5.1937   -3.0093    0.0000 O   0  0
    3.8933   -3.7570    0.0000 C   0  0
    2.5951   -3.0039    0.0000 N   0  0
    2.5973   -1.5031    0.0000 C   0  0
    1.2990   -0.7500    0.0000 C   0  0
    1.2990    0.7500    0.0000 C   0  0
    0.0000    1.5000    0.0000 C   0  0
   -1.2990    0.7500    0.0000 C   0  0
   -1.2990   -0.7500    0.0000 C   0  0
    0.0000   -1.5000    0.0000 C   0  0
    3.8912   -5.2578    0.0000 C   0  0
    2.5895   -6.0034    0.0000 C   0  0
    2.5844   -7.5034    0.0000 C   0  0
    1.2836   -8.2520    0.0000 N   0  0
    1.2805   -9.7528    0.0000 C   0  0
   -0.0203  -10.5014    0.0000 C   0  0
   -1.3168   -9.7470    0.0000 C   0  0
   -2.6184  -10.4926    0.0000 C   0  0
   -3.9149   -9.7381    0.0000 O   0  0
   -2.6236  -11.9925    0.0000 C   0  0
   -1.3271  -12.7470    0.0000 C   0  0
   -0.0255  -12.0015    0.0000 C   0  0
    1.2709  -12.7559    0.0000 O   0  0
    3.8808   -8.2579    0.0000 C   0  0
    5.1824   -7.5124    0.0000 C   0  0
    5.1876   -6.0124    0.0000 C   0  0
    6.4893   -5.2669    0.0000 O   0  0
  1  2  2  0
  2  3  1  0
  3  4  1  0
  4  5  1  0
  5  6  2  0
  6  7  1  0
  7  8  2  0
  8  9  1  0
  9 10  2  0
 10  5  1  0
  2 11  1  0
 11 12  2  0
 12 13  1  0
 13 14  1  0
 14 15  1  0
 15 16  1  0
 16 17  2  0
 17 18  1  0
 18 19  1  0
 18 20  2  0
 20 21  1  0
 21 22  2  0
 22 16  1  0
 22 23  1  0
 13 24  2  0
 24 25  1  0
 25 26  2  0
 26 11  1  0
 26 27  1  0
M  END
> <Smiles>
O=C(NCc1ccccc1)c1cc(NCc2cc(O)ccc2O)ccc1O

> <ID>
CHEMBL140774

> <standard_value>
21000

> <IC50_uM>
21

> <Activity>
No

> <pIC50>
4.677780705

> <BCI>
0

$$$$

  SciTegic03012415362D

 18 18  0  0  0  0            999 V2000
    9.0983   -0.7529    0.0000 C   0  0
    7.7988   -1.5020    0.0000 C   0  0
    6.4990   -0.7516    0.0000 N   0  0
    6.5026    0.7492    0.0000 C   0  0
    7.8029    1.4969    0.0000 C   0  0
    5.1988   -1.5012    0.0000 C   0  0
    5.1983   -3.0012    0.0000 S   0  0
    3.8990   -0.7508    0.0000 S   0  0
    2.5988   -1.5004    0.0000 S   0  0
    2.5983   -3.0004    0.0000 O   0  0
    3.8975   -2.2510    0.0000 O   0  0
    1.2990   -0.7500    0.0000 C   0  0
    1.2990    0.7500    0.0000 C   0  0
    0.0000    1.5000    0.0000 C   0  0
   -1.2990    0.7500    0.0000 C   0  0
   -2.5981    1.5000    0.0000 N   0  0
   -1.2990   -0.7500    0.0000 C   0  0
    0.0000   -1.5000    0.0000 C   0  0
  1  2  1  0
  2  3  1  0
  3  4  1  0
  4  5  1  0
  3  6  1  0
  6  7  2  0
  6  8  1  0
  8  9  1  0
  9 10  2  0
  9 11  2  0
  9 12  1  0
 12 13  2  0
 13 14  1  0
 14 15  2  0
 15 16  1  0
 15 17  1  0
 17 18  2  0
 18 12  1  0
M  END
> <Smiles>
CCN(CC)C(=S)SS(=O)(=O)c1ccc(N)cc1

> <ID>
CHEMBL55509

> <standard_value>
21000

> <IC50_uM>
21

> <Activity>
No

> <pIC50>
4.677780705

> <BCI>
0

$$$$

  SciTegic03012415362D

 22 23  0  0  0  0            999 V2000
    3.8983   -0.7459    0.0000 C   0  0
    2.6003   -1.4977    0.0000 O   0  0
    1.2990   -0.7500    0.0000 C   0  0
    1.2990    0.7500    0.0000 C   0  0
    0.0000    1.5000    0.0000 C   0  0
   -0.0031    3.0008    0.0000 C   0  0
    1.2946    3.7531    0.0000 O   0  0
   -1.3039    3.7494    0.0000 N   0  0
   -2.6532    3.1236    0.0000 C   0  0
   -3.6607    4.2349    0.0000 C   0  0
   -2.9153    5.5365    0.0000 N   0  0
   -3.5322    6.9018    0.0000 C   0  0
   -5.0248    7.0513    0.0000 O   0  0
   -1.4470    5.2297    0.0000 C   0  0
   -0.3298    6.2307    0.0000 S   0  0
   -1.2990    0.7500    0.0000 C   0  0
   -1.2990   -0.7500    0.0000 C   0  0
   -2.6003   -1.4978    0.0000 O   0  0
   -3.8983   -0.7459    0.0000 C   0  0
    0.0000   -1.5000    0.0000 C   0  0
    0.0031   -3.0008    0.0000 O   0  0
    1.3032   -3.7490    0.0000 C   0  0
  1  2  1  0
  2  3  1  0
  3  4  2  0
  4  5  1  0
  5  6  1  0
  6  7  2  0
  6  8  1  0
  8  9  1  0
  9 10  1  0
 10 11  1  0
 11 12  1  0
 12 13  2  0
 11 14  1  0
 14  8  1  0
 14 15  2  0
  5 16  2  0
 16 17  1  0
 17 18  1  0
 18 19  1  0
 17 20  2  0
 20  3  1  0
 20 21  1  0
 21 22  1  0
M  END
> <Smiles>
COc1cc(C(=O)N2CCN(C=O)C2=S)cc(OC)c1OC

> <ID>
CHEMBL475759

> <standard_value>
21300

> <IC50_uM>
21.3

> <Activity>
No

> <pIC50>
4.671620397

> <BCI>
0

$$$$

  SciTegic03012415362D

 33 36  0  0  1  0            999 V2000
   -4.0963   -2.0431    0.0000 C   0  0
   -2.6280   -2.3497    0.0000 C   0  0
   -2.1581   -3.7751    0.0000 C   0  0
   -0.6890   -4.0818    0.0000 C   0  0  1  0  0  0
   -0.2234   -5.5086    0.0000 N   0  0
   -1.2256   -6.6258    0.0000 C   0  0  1  0  0  0
   -2.6935   -6.3130    0.0000 C   0  0
   -3.1572   -4.8865    0.0000 O   0  0
   -0.7600   -8.0526    0.0000 C   0  0
   -1.7600   -9.1707    0.0000 C   0  0
   -1.2918  -10.5957    0.0000 C   0  0
    0.1764  -10.9028    0.0000 C   0  0
    1.1765   -9.7848    0.0000 C   0  0
    0.7083   -8.3597    0.0000 C   0  0
    0.3114   -2.9665    0.0000 C   0  0
    1.8032   -3.1233    0.0000 C   0  0
    2.4133   -1.7530    0.0000 N   0  0
    3.8788   -1.4412    0.0000 S   0  0
    4.3416   -0.0143    0.0000 O   0  0
    2.8747   -0.3268    0.0000 O   0  0
    4.8840   -2.5556    0.0000 C   0  0
    4.4216   -3.9826    0.0000 C   0  0
    5.4263   -5.0965    0.0000 C   0  0
    6.8932   -4.7834    0.0000 C   0  0
    7.8979   -5.8973    0.0000 C   0  0
    7.3556   -3.3564    0.0000 C   0  0
    6.3509   -2.2425    0.0000 C   0  0
    1.2990   -0.7500    0.0000 C   0  0
    1.2990    0.7500    0.0000 C   0  0
    0.0000    1.5000    0.0000 C   0  0
   -1.2990    0.7500    0.0000 C   0  0
   -1.2990   -0.7500    0.0000 C   0  0
    0.0000   -1.5000    0.0000 C   0  0
  1  2  2  0
  2  3  1  0
  4  3  1  6
  4  5  1  0
  6  5  1  6
  6  7  1  0
  7  8  1  0
  6  9  1  0
  9 10  2  0
 10 11  1  0
 11 12  2  0
 12 13  1  0
 13 14  2  0
 14  9  1  0
  4 15  1  0
 15 16  2  0
 16 17  1  0
 17 18  1  0
 18 19  2  0
 18 20  2  0
 18 21  1  0
 21 22  2  0
 22 23  1  0
 23 24  2  0
 24 25  1  0
 24 26  1  0
 26 27  2  0
 27 21  1  0
 17 28  1  0
 28 29  2  0
 29 30  1  0
 30 31  2  0
 31 32  1  0
 32 33  2  0
 33 15  1  0
 33 28  1  0
M  END
> <Smiles>
C=CC[C@@H](N[C@@H](CO)c1ccccc1)c1cn(S(=O)(=O)c2ccc(C)cc2)c2ccccc12

> <ID>
CHEMBL228058

> <standard_value>
21379.62

> <IC50_uM>
21.37962

> <Activity>
No

> <pIC50>
4.670000018

> <BCI>
0

$$$$

  SciTegic03012415362D

 26 29  0  0  0  0            999 V2000
    2.5981   -1.5000    0.0000 N   0  0
    1.2990   -0.7500    0.0000 C   0  0
    1.2990    0.7500    0.0000 C   0  0
    0.0000    1.5000    0.0000 C   0  0
    0.0000    3.0000    0.0000 N   0  0
   -1.2990    0.7500    0.0000 C   0  0
   -2.5981    1.5000    0.0000 N   0  0
   -3.8971    0.7500    0.0000 C   0  0
   -5.1968    1.5003    0.0000 C   0  0
   -5.1993    3.0004    0.0000 C   0  0
   -6.4995    3.7483    0.0000 C   0  0
   -7.7974    2.9963    0.0000 C   0  0
   -7.7950    1.4963    0.0000 C   0  0
   -6.4948    0.7483    0.0000 C   0  0
   -3.8971   -0.7500    0.0000 C   0  0
   -5.1953   -1.5031    0.0000 S   0  0
   -5.1932   -3.0039    0.0000 C   0  0
   -6.4896   -3.7585    0.0000 C   0  0
   -6.4844   -5.2585    0.0000 C   0  0
   -5.1828   -6.0040    0.0000 C   0  0
   -5.1776   -7.5040    0.0000 F   0  0
   -3.8863   -5.2495    0.0000 C   0  0
   -3.8915   -3.7495    0.0000 C   0  0
   -2.5981   -1.5000    0.0000 N   0  0
   -1.2990   -0.7500    0.0000 C   0  0
    0.0000   -1.5000    0.0000 C   0  0
  1  2  1  0
  2  3  2  0
  3  4  1  0
  4  5  1  0
  4  6  2  0
  6  7  1  0
  7  8  2  0
  8  9  1  0
  9 10  2  0
 10 11  1  0
 11 12  2  0
 12 13  1  0
 13 14  2  0
 14  9  1  0
  8 15  1  0
 15 16  1  0
 16 17  1  0
 17 18  2  0
 18 19  1  0
 19 20  2  0
 20 21  1  0
 20 22  1  0
 22 23  2  0
 23 17  1  0
 15 24  2  0
 24 25  1  0
 25  6  1  0
 25 26  2  0
 26  2  1  0
M  END
> <Smiles>
Nc1cc(N)c2nc(-c3ccccc3)c(Sc3ccc(F)cc3)nc2c1

> <ID>
CHEMBL482652

> <standard_value>
21379.62

> <IC50_uM>
21.37962

> <Activity>
No

> <pIC50>
4.670000018

> <BCI>
0

$$$$

  SciTegic03012415362D

 31 34  0  0  0  0            999 V2000
    2.5981   -1.5000    0.0000 C   0  0
    1.2990   -0.7500    0.0000 C   0  0
    1.2990    0.7500    0.0000 C   0  0
    0.0000    1.5000    0.0000 C   0  0
   -1.2990    0.7500    0.0000 C   0  0
   -2.5987    1.5004    0.0000 C   0  0
   -3.9492    0.8772    0.0000 C   0  0
   -4.9546    1.9903    0.0000 S   0  0
   -4.2067    3.2905    0.0000 C   0  0
   -4.8211    4.6570    0.0000 N   0  0
   -6.3142    4.8094    0.0000 N   0  0
   -6.9296    6.1782    0.0000 C   0  0
   -6.0520    7.3947    0.0000 O   0  0
   -8.4227    6.3306    0.0000 C   0  0
   -9.0398    7.6978    0.0000 C   0  0
  -10.5324    7.8470    0.0000 C   0  0
  -11.4079    6.6290    0.0000 C   0  0
  -12.9005    6.7783    0.0000 O   0  0
  -10.7909    5.2618    0.0000 C   0  0
   -9.2983    5.1126    0.0000 C   0  0
   -2.7390    2.9810    0.0000 N   0  0
   -1.6193    3.9803    0.0000 C   0  0  3  0  0  0
   -0.1673    3.6256    0.0000 C   0  0
    0.2534    2.1858    0.0000 C   0  0
    0.8689    4.7101    0.0000 C   0  0
    0.4478    6.1498    0.0000 C   0  0
   -1.0096    6.5049    0.0000 C   0  0
   -2.0458    5.4204    0.0000 C   0  0
   -3.5037    5.7731    0.0000 C   0  0
   -1.2990   -0.7500    0.0000 C   0  0
    0.0000   -1.5000    0.0000 C   0  0
  1  2  1  0
  2  3  2  0
  3  4  1  0
  4  5  2  0
  5  6  1  0
  6  7  2  0
  7  8  1  0
  8  9  1  0
  9 10  2  0
 10 11  1  0
 11 12  1  0
 12 13  2  0
 12 14  1  0
 14 15  2  0
 15 16  1  0
 16 17  2  0
 17 18  1  0
 17 19  1  0
 19 20  2  0
 20 14  1  0
  9 21  1  0
 21  6  1  0
 21 22  1  0
 22 23  2  0
 23 24  1  0
 23 25  1  0
 25 26  2  0
 26 27  1  0
 27 28  2  0
 22 28  1  4
 28 29  1  0
  5 30  1  0
 30 31  2  0
 31  2  1  0
M  END
> <Smiles>
Cc1ccc(-c2cs/c(=N\NC(=O)c3ccc(O)cc3)n2-c2c(C)cccc2C)cc1

> <ID>
CHEMBL2262334

> <standard_value>
21877.62

> <IC50_uM>
21.87762

> <Activity>
No

> <pIC50>
4.659999925

> <BCI>
0

$$$$

  SciTegic03012415362D

 28 29  0  0  1  0            999 V2000
    5.3192   -0.2597    0.0000 C   0  0
    4.1500    0.6800    0.0000 C   0  0  1  0  0  0
    2.5200    0.3600    0.0000 C   0  0
    2.3100   -1.1700    0.0000 C   0  0
    1.3300   -1.6300    0.0000 C   0  0
    0.1900   -1.1200    0.0000 C   0  0
    0.0000    0.3600    0.0000 C   0  0
   -1.5600    0.8100    0.0000 C   0  0  2  0  0  0
   -3.0100    0.3400    0.0000 C   0  0
   -3.9100    1.5700    0.0000 C   0  0  2  0  0  0
   -5.4079    1.5624    0.0000 O   0  0
   -6.1525    0.2593    0.0000 C   0  0
   -5.3962   -1.0361    0.0000 O   0  0
   -7.6533    0.2516    0.0000 C   0  0
   -8.3978   -1.0515    0.0000 C   0  0
   -9.8986   -1.0592    0.0000 C   0  0
  -10.6432   -2.3623    0.0000 C   0  0
  -12.1432   -2.3700    0.0000 O   0  0
   -9.8870   -3.6577    0.0000 O   0  0
   -3.0100    2.8100    0.0000 C   0  0
   -1.5600    2.3300    0.0000 C   0  0  1  0  0  0
    0.0000    2.8600    0.0000 C   0  0  2  0  0  0
    1.1178    1.8598    0.0000 O   0  0
    0.3300    4.3600    0.0000 C   0  0
    2.3100    4.3400    0.0000 C   0  0
    2.6310    5.8738    0.0000 C   0  0
    2.2348    4.4271    0.0000 O   0  0
    4.1100    2.4200    0.0000 O   0  0
  2  1  1  1
  2  3  1  0
  3  4  1  0
  4  5  1  0
  5  6  1  0
  6  7  2  0
  8  7  1  6
  8  9  1  0
  9 10  1  0
 10 11  1  6
 11 12  1  0
 12 13  2  0
 12 14  1  0
 14 15  1  0
 15 16  1  0
 16 17  1  0
 17 18  2  0
 17 19  1  0
 10 20  1  0
 21 20  1  1
 21  8  1  0
 21 22  1  0
 22 23  1  1
 22 24  1  0
 24 25  2  0
 25 26  1  0
 26 27  2  0
 26 28  1  0
 28  2  1  0
M  END
> <Smiles>
C[C@H]1CCC/C=C/[C@@H]2C[C@H](OC(=O)CCCC(=O)O)C[C@H]2[C@H](O)/C=C/C(=O)O1

> <ID>
CHEMBL113914

> <standard_value>
22000

> <IC50_uM>
22

> <Activity>
No

> <pIC50>
4.657577319

> <BCI>
0

$$$$

  SciTegic03012415362D

 22 24  0  0  1  0            999 V2000
    3.6206   -6.3275    0.0000 O   0  0
    4.2312   -4.9574    0.0000 C   0  0
    3.3517   -3.7444    0.0000 C   0  0  1  0  0  0
    3.8137   -2.3173    0.0000 C   0  0
    2.5992   -1.5005    0.0000 C   0  0  2  0  0  0
    3.8967   -0.7478    0.0000 O   0  0
    1.6341   -0.3506    0.0000 C   0  0
    0.1570   -0.6114    0.0000 C   0  0
   -0.8075    0.5375    0.0000 C   0  0
   -0.2948    1.9471    0.0000 C   0  0
    1.1824    2.2079    0.0000 C   0  0
    2.1468    1.0591    0.0000 C   0  0
    3.6240    1.3199    0.0000 Cl  0  0
    1.3866   -2.3200    0.0000 C   0  0  1  0  0  0
   -0.1139   -2.3477    0.0000 C   0  0
   -0.7683   -0.9957    0.0000 C   0  0
   -2.2647   -0.8920    0.0000 C   0  0
   -3.1027   -2.1361    0.0000 C   0  0
   -2.4442   -3.4839    0.0000 C   0  0
   -0.9478   -3.5876    0.0000 C   0  0
   -0.2890   -4.9351    0.0000 Cl  0  0
    1.8517   -3.7461    0.0000 O   0  0
  1  2  1  0
  3  2  1  6
  3  4  1  0
  4  5  1  0
  5  6  1  6
  5  7  1  0
  7  8  2  0
  8  9  1  0
  9 10  2  0
 10 11  1  0
 11 12  2  0
 12  7  1  0
 12 13  1  0
  5 14  1  0
 14 15  1  6
 15 16  2  0
 16 17  1  0
 17 18  2  0
 18 19  1  0
 19 20  2  0
 20 15  1  0
 20 21  1  0
 14 22  1  0
 22  3  1  0
M  END
> <Smiles>
OC[C@H]1C[C@](O)(c2ccccc2Cl)[C@@H](c2ccccc2Cl)O1

> <ID>
CHEMBL226061

> <standard_value>
22387.21

> <IC50_uM>
22.38721

> <Activity>
No

> <pIC50>
4.650000027

> <BCI>
0

$$$$

  SciTegic03012415362D

 36 41  0  0  0  0            999 V2000
   10.8198   -5.3350    0.0000 O   0  0
    9.5437   -6.1233    0.0000 S   0  0
   10.8645   -6.8341    0.0000 O   0  0
    9.5887   -7.6234    0.0000 N   0  0
   10.9100   -8.3353    0.0000 C   0  0
   12.1862   -7.5470    0.0000 S   0  0
   10.9551   -9.8354    0.0000 N   0  0
   12.2763  -10.5473    0.0000 C   0  0
   12.3235  -12.0466    0.0000 C   0  0
   13.6455  -12.7554    0.0000 C   0  0
   14.9203  -11.9649    0.0000 C   0  0
   14.8732  -10.4657    0.0000 C   0  0
   13.5512   -9.7569    0.0000 C   0  0
    8.2224   -5.4114    0.0000 C   0  0
    8.1783   -3.9120    0.0000 C   0  0
    6.8578   -3.2005    0.0000 C   0  0
    5.5861   -3.9865    0.0000 C   0  0
    4.2151   -3.3761    0.0000 N   0  0
    3.9032   -1.9089    0.0000 N   0  0
    2.4133   -1.7530    0.0000 C   0  0
    1.2990   -0.7500    0.0000 C   0  0
    1.2990    0.7500    0.0000 C   0  0
    0.0000    1.5000    0.0000 C   0  0
   -1.2990    0.7500    0.0000 C   0  0
   -1.2990   -0.7500    0.0000 C   0  0
    0.0000   -1.5000    0.0000 C   0  0
    0.3114   -2.9665    0.0000 C   0  0
    1.8032   -3.1233    0.0000 C   0  0  3  0  0  0
    2.9160   -4.1261    0.0000 C   0  0  3  0  0  0
    2.7588   -5.6186    0.0000 C   0  0
    1.5265   -6.4428    0.0000 C   0  0
    1.9521   -7.8811    0.0000 C   0  0
    3.4516   -7.9208    0.0000 C   0  0
    3.9527   -6.5070    0.0000 S   0  0
    5.6255   -5.4877    0.0000 C   0  0
    6.9460   -6.1992    0.0000 C   0  0
  1  2  2  0
  2  3  2  0
  2  4  1  0
  4  5  1  0
  5  6  2  0
  5  7  1  0
  7  8  1  0
  8  9  2  0
  9 10  1  0
 10 11  2  0
 11 12  1  0
 12 13  2  0
 13  8  1  0
  2 14  1  0
 14 15  2  0
 15 16  1  0
 16 17  2  0
 17 18  1  0
 18 19  1  0
 19 20  2  0
 20 21  1  0
 21 22  2  0
 22 23  1  0
 23 24  2  0
 24 25  1  0
 25 26  2  0
 26 21  1  0
 26 27  1  0
 28 27  1  4
 28 20  1  0
 28 29  1  0
 29 18  1  0
 29 30  1  4
 30 31  2  0
 31 32  1  0
 32 33  2  0
 33 34  1  0
 34 30  1  0
 17 35  1  0
 35 36  2  0
 36 14  1  0
M  END
> <Smiles>
O=S(=O)(NC(=S)Nc1ccccc1)c1ccc(N2N=C3c4ccccc4CC3C2c2cccs2)cc1

> <ID>
CHEMBL2263482

> <standard_value>
22700

> <IC50_uM>
22.7

> <Activity>
No

> <pIC50>
4.643974143

> <BCI>
0

$$$$

  SciTegic03012415362D

 22 25  0  0  0  0            999 V2000
    2.5447   -7.0216    0.0000 C   0  0
    1.7974   -5.7210    0.0000 C   0  0
    2.5497   -4.4224    0.0000 S   0  0
    1.8032   -3.1233    0.0000 C   0  0
    2.4133   -1.7530    0.0000 N   0  0
    1.2990   -0.7500    0.0000 C   0  0
    1.2990    0.7500    0.0000 C   0  0
    0.0000    1.5000    0.0000 C   0  0
   -1.2990    0.7500    0.0000 C   0  0
   -1.2990   -0.7500    0.0000 C   0  0
    0.0000   -1.5000    0.0000 C   0  0
    0.3114   -2.9665    0.0000 N   0  0
   -2.5981   -1.5000    0.0000 C   0  0
   -2.5981   -3.0000    0.0000 O   0  0
   -3.8971   -0.7500    0.0000 C   0  0
   -5.1962   -1.5000    0.0000 C   0  0
   -6.4952   -0.7500    0.0000 C   0  0
   -6.4952    0.7500    0.0000 C   0  0
   -5.1962    1.5000    0.0000 C   0  0
   -3.8971    0.7500    0.0000 C   0  0
   -2.5981    1.5000    0.0000 C   0  0
   -2.5981    3.0000    0.0000 O   0  0
  1  2  1  0
  2  3  1  0
  3  4  1  0
  4  5  2  0
  5  6  1  0
  6  7  2  0
  7  8  1  0
  8  9  2  0
  9 10  1  0
 10 11  2  0
 11  6  1  0
 11 12  1  0
 12  4  1  0
 10 13  1  0
 13 14  2  0
 13 15  1  0
 15 16  2  0
 16 17  1  0
 17 18  2  0
 18 19  1  0
 19 20  2  0
 20 15  1  0
 20 21  1  0
 21  9  1  0
 21 22  2  0
M  END
> <Smiles>
CCSc1nc2ccc3c(c2[nH]1)C(=O)c1ccccc1C3=O

> <ID>
CHEMBL3121343

> <standard_value>
22900

> <IC50_uM>
22.9

> <Activity>
No

> <pIC50>
4.640164518

> <BCI>
0

$$$$

  SciTegic03012415362D

 33 36  0  0  1  0            999 V2000
    3.8964    0.7545    0.0000 C   0  0
    3.8990   -0.7455    0.0000 C   0  0
    5.1996   -1.4928    0.0000 O   0  0
    2.6003   -1.4977    0.0000 O   0  0
    1.2990   -0.7500    0.0000 C   0  0
    1.2990    0.7500    0.0000 C   0  0
    0.0000    1.5000    0.0000 C   0  0
   -1.2990    0.7500    0.0000 C   0  0
   -1.2990   -0.7500    0.0000 C   0  0
    0.0000   -1.5000    0.0000 C   0  0
   -0.0031   -3.0008    0.0000 O   0  0
   -1.3039   -3.7494    0.0000 C   0  0
   -1.3070   -5.2502    0.0000 C   0  0
   -2.6071   -5.9984    0.0000 F   0  0
   -0.0092   -6.0025    0.0000 F   0  0
   -1.3094   -6.7502    0.0000 F   0  0
   -2.5981    1.5000    0.0000 C   0  0  1  0  0  0
   -3.8971    0.7500    0.0000 C   0  0
   -5.1962    1.5000    0.0000 C   0  0
   -5.1962    3.0000    0.0000 C   0  0  2  0  0  0
   -6.5611    2.3779    0.0000 C   0  0
   -6.3238    3.9802    0.0000 C   0  0  1  0  0  0
   -7.7844    3.6470    0.0000 O   0  0
   -8.2279    2.2132    0.0000 C   0  0
   -7.2081    1.1132    0.0000 C   0  0
   -9.6903    1.8796    0.0000 O   0  0
   -5.7224    5.3544    0.0000 C   0  0
   -4.2297    5.2071    0.0000 C   0  0
   -3.8971    3.7500    0.0000 C   0  0  1  0  0  0
   -2.5981    3.0000    0.0000 C   0  0  2  0  0  0
   -1.2991    3.7500    0.0000 C   0  0
    0.0000    3.0000    0.0000 C   0  0
    1.2990    3.7500    0.0000 O   0  0
  1  2  1  0
  2  3  2  0
  2  4  1  0
  4  5  1  0
  5  6  2  0
  6  7  1  0
  7  8  2  0
  8  9  1  0
  9 10  2  0
 10  5  1  0
 10 11  1  0
 11 12  1  0
 12 13  1  0
 13 14  1  0
 13 15  1  0
 13 16  1  0
  8 17  1  0
 17 18  1  1
 18 19  1  0
 19 20  1  0
 20 21  1  1
 20 22  1  0
 22 23  1  1
 23 24  1  0
 24 25  1  0
 24 26  2  0
 22 27  1  0
 27 28  1  0
 29 28  1  1
 29 20  1  0
 29 30  1  0
 30 17  1  0
 30 31  1  6
 31 32  1  0
 32  7  1  0
 32 33  2  0
M  END
> <Smiles>
CC(=O)Oc1cc2c(cc1OCC(F)(F)F)[C@H]1CC[C@]3(C)[C@@H](OC(C)=O)CC[C@H]3[C@@H]1CC2=O

> <ID>
CHEMBL1627891

> <standard_value>
23000

> <IC50_uM>
23

> <Activity>
No

> <pIC50>
4.638272164

> <BCI>
0

$$$$

  SciTegic03012415362D

 24 25  0  0  1  0            999 V2000
    5.3192   -0.2597    0.0000 C   0  0
    4.1500    0.6800    0.0000 C   0  0  1  0  0  0
    2.5200    0.3600    0.0000 C   0  0
    2.3100   -1.1700    0.0000 C   0  0
    1.3300   -1.6300    0.0000 C   0  0
    0.1900   -1.1200    0.0000 C   0  0
    0.0000    0.3600    0.0000 C   0  0
   -1.5600    0.8100    0.0000 C   0  0  2  0  0  0
   -3.0100    0.3400    0.0000 C   0  0
   -3.9100    1.5700    0.0000 C   0  0  2  0  0  0
   -5.4100    1.5671    0.0000 O   0  0
   -3.0100    2.8100    0.0000 C   0  0
   -1.5600    2.3300    0.0000 C   0  0  1  0  0  0
    0.0000    2.8600    0.0000 C   0  0  2  0  0  0
    0.7452    2.1932    0.0000 O   0  0
    0.3300    4.3600    0.0000 C   0  0  2  0  0  0
   -0.6528    5.4848    0.0000 S   0  0
   -2.1250    5.1934    0.0000 C   0  0
   -3.1143    6.3220    0.0000 C   0  0
   -4.5857    6.0307    0.0000 O   0  0
    2.3100    4.3400    0.0000 C   0  0
    2.6000    2.8000    0.0000 C   0  0
    1.8719    2.1146    0.0000 O   0  0
    4.1100    2.4200    0.0000 O   0  0
  2  1  1  1
  2  3  1  0
  3  4  1  0
  4  5  1  0
  5  6  1  0
  6  7  2  0
  8  7  1  6
  8  9  1  0
  9 10  1  0
 10 11  1  6
 10 12  1  0
 13 12  1  1
 13  8  1  0
 13 14  1  0
 14 15  1  1
 14 16  1  0
 16 17  1  6
 17 18  1  0
 18 19  1  0
 19 20  1  0
 16 21  1  0
 21 22  1  0
 22 23  2  0
 22 24  1  0
 24  2  1  0
M  END
> <Smiles>
C[C@H]1CCC/C=C/[C@@H]2C[C@H](O)C[C@H]2[C@H](O)[C@H](SCCO)CC(=O)O1

> <ID>
CHEMBL432795

> <standard_value>
23000

> <IC50_uM>
23

> <Activity>
No

> <pIC50>
4.638272164

> <BCI>
0

$$$$

  SciTegic03012415362D

 27 30  0  0  0  0            999 V2000
    7.7802    3.0211    0.0000 C   0  0
    7.7876    1.5211    0.0000 O   0  0
    6.4920    0.7636    0.0000 C   0  0
    6.4972   -0.7364    0.0000 C   0  0
    5.2007   -1.4909    0.0000 C   0  0
    3.8990   -0.7455    0.0000 C   0  0
    2.6003   -1.4977    0.0000 O   0  0
    1.2990   -0.7500    0.0000 C   0  0
    1.2990    0.7500    0.0000 N   0  0
    0.0000    1.5000    0.0000 C   0  0
    0.0000    3.0000    0.0000 C   0  0
   -1.2991    3.7500    0.0000 C   0  0
   -1.2991    5.2500    0.0000 N   0  0
   -2.5981    3.0000    0.0000 C   0  0
   -2.5981    1.5000    0.0000 C   0  0
   -3.8971    0.7500    0.0000 N   0  0
   -1.2990    0.7500    0.0000 C   0  0
   -1.2990   -0.7500    0.0000 N   0  0
    0.0000   -1.5000    0.0000 C   0  0
    0.0000   -3.0008    0.0000 C   0  0
   -1.2978   -3.7529    0.0000 C   0  0
   -1.2955   -5.2529    0.0000 C   0  0
    0.0048   -6.0009    0.0000 C   0  0
    1.3026   -5.2488    0.0000 C   0  0
    1.3002   -3.7488    0.0000 C   0  0
    3.8939    0.7546    0.0000 C   0  0
    5.1903    1.5091    0.0000 C   0  0
  1  2  1  0
  2  3  1  0
  3  4  2  0
  4  5  1  0
  5  6  2  0
  6  7  1  0
  7  8  1  0
  8  9  2  0
  9 10  1  0
 10 11  2  0
 11 12  1  0
 12 13  1  0
 12 14  2  0
 14 15  1  0
 15 16  1  0
 15 17  2  0
 17 10  1  0
 17 18  1  0
 18 19  2  0
 19  8  1  0
 19 20  1  0
 20 21  2  0
 21 22  1  0
 22 23  2  0
 23 24  1  0
 24 25  2  0
 25 20  1  0
  6 26  1  0
 26 27  2  0
 27  3  1  0
M  END
> <Smiles>
COc1ccc(Oc2nc3cc(N)cc(N)c3nc2-c2ccccc2)cc1

> <ID>
CHEMBL483472

> <standard_value>
23442.29

> <IC50_uM>
23.44229

> <Activity>
No

> <pIC50>
4.629999966

> <BCI>
0

$$$$

  SciTegic03012415362D

 29 30  0  0  0  0            999 V2000
   11.6982   -0.7323    0.0000 C   0  0
   10.4003   -1.4841    0.0000 C   0  0
    9.0990   -0.7364    0.0000 C   0  0
    7.8003   -1.4887    0.0000 C   0  0
    6.4990   -0.7409    0.0000 C   0  0
    5.2003   -1.4932    0.0000 C   0  0
    3.8990   -0.7455    0.0000 N   0  0
    2.6003   -1.4977    0.0000 C   0  0
    2.6030   -2.9977    0.0000 O   0  0
    1.2990   -0.7500    0.0000 C   0  0
    1.2990    0.7500    0.0000 C   0  0
    0.0000    1.5000    0.0000 C   0  0
   -0.0031    3.0008    0.0000 C   0  0
   -1.3039    3.7494    0.0000 C   0  0
   -2.6031    2.9979    0.0000 C   0  0
   -2.5989    1.4979    0.0000 C   0  0
   -3.8958    0.7442    0.0000 C   0  0
   -3.8947   -0.7566    0.0000 O   0  0
   -5.1927   -1.5084    0.0000 C   0  0
   -5.1970    1.4905    0.0000 C   0  0
   -5.2012    2.9905    0.0000 C   0  0
   -3.9043    3.7442    0.0000 C   0  0
   -3.9117    5.2450    0.0000 O   0  0
   -5.2139    5.9894    0.0000 C   0  0
   -1.2990    0.7500    0.0000 C   0  0
   -1.2990   -0.7500    0.0000 C   0  0
    0.0000   -1.5000    0.0000 C   0  0
   -0.0031   -3.0008    0.0000 O   0  0
   -1.3032   -3.7490    0.0000 C   0  0
  1  2  1  0
  2  3  1  0
  3  4  1  0
  4  5  1  0
  5  6  1  0
  6  7  1  0
  7  8  1  0
  8  9  2  0
  8 10  1  0
 10 11  2  0
 11 12  1  0
 12 13  1  0
 13 14  2  0
 14 15  1  0
 15 16  2  0
 16 17  1  0
 17 18  1  0
 18 19  1  0
 17 20  2  0
 20 21  1  0
 21 22  2  0
 22 15  1  0
 22 23  1  0
 23 24  1  0
 12 25  2  0
 25 26  1  0
 26 27  2  0
 27 10  1  0
 27 28  1  0
 28 29  1  0
M  END
> <Smiles>
CCCCCCNC(=O)c1cc(/C=C\c2cc(OC)ccc2OC)ccc1OC

> <ID>
CHEMBL47833

> <standard_value>
23600

> <IC50_uM>
23.6

> <Activity>
No

> <pIC50>
4.627087997

> <BCI>
0

$$$$

  SciTegic03012415362D

 42 48  0  0  0  0            999 V2000
   12.3263  -12.0426    0.0000 O   0  0
   12.2792  -10.5434    0.0000 C   0  0
   13.5540   -9.7529    0.0000 C   0  0
   13.5069   -8.2537    0.0000 C   0  0
   12.1849   -7.5448    0.0000 S   0  0
   10.9100   -8.3353    0.0000 C   0  0
    9.5887   -7.6234    0.0000 N   0  0
    9.5437   -6.1233    0.0000 S   0  0
   10.8198   -5.3350    0.0000 O   0  0
   10.8645   -6.8341    0.0000 O   0  0
    8.2224   -5.4114    0.0000 C   0  0
    8.1783   -3.9120    0.0000 C   0  0
    6.8578   -3.2005    0.0000 C   0  0
    5.5861   -3.9865    0.0000 C   0  0
    4.2151   -3.3761    0.0000 N   0  0
    3.9032   -1.9089    0.0000 N   0  0
    2.4133   -1.7530    0.0000 C   0  0
    1.2990   -0.7500    0.0000 C   0  0
    1.2990    0.7500    0.0000 C   0  0
    0.0000    1.5000    0.0000 C   0  0
   -1.2990    0.7500    0.0000 C   0  0
   -1.2990   -0.7500    0.0000 C   0  0
    0.0000   -1.5000    0.0000 C   0  0
    0.3114   -2.9665    0.0000 C   0  0
    1.8032   -3.1233    0.0000 C   0  0  3  0  0  0
    2.9160   -4.1261    0.0000 C   0  0  3  0  0  0
    2.7588   -5.6186    0.0000 C   0  0
    1.5265   -6.4428    0.0000 C   0  0
    1.9521   -7.8811    0.0000 C   0  0
    3.4516   -7.9208    0.0000 C   0  0
    3.9527   -6.5070    0.0000 S   0  0
    5.6255   -5.4877    0.0000 C   0  0
    6.9460   -6.1992    0.0000 C   0  0
   10.9572   -9.8346    0.0000 N   0  0
    9.6833  -10.6281    0.0000 C   0  0
    8.3601   -9.9217    0.0000 O   0  0
    9.7327  -12.1281    0.0000 C   0  0
    8.4607  -12.9231    0.0000 C   0  0
    8.5130  -14.4222    0.0000 C   0  0
    9.8375  -15.1264    0.0000 C   0  0
   11.1095  -14.3315    0.0000 C   0  0
   11.0572  -12.8324    0.0000 C   0  0
  1  2  2  0
  2  3  1  0
  3  4  1  0
  4  5  1  0
  5  6  1  0
  6  7  2  0
  7  8  1  0
  8  9  2  0
  8 10  2  0
  8 11  1  0
 11 12  2  0
 12 13  1  0
 13 14  2  0
 14 15  1  0
 15 16  1  0
 16 17  2  0
 17 18  1  0
 18 19  2  0
 19 20  1  0
 20 21  2  0
 21 22  1  0
 22 23  2  0
 23 18  1  0
 23 24  1  0
 25 24  1  4
 25 17  1  0
 25 26  1  0
 26 15  1  0
 26 27  1  4
 27 28  2  0
 28 29  1  0
 29 30  2  0
 30 31  1  0
 31 27  1  0
 14 32  1  0
 32 33  2  0
 33 11  1  0
  6 34  1  0
 34  2  1  0
 34 35  1  0
 35 36  2  0
 35 37  1  0
 37 38  2  0
 38 39  1  0
 39 40  2  0
 40 41  1  0
 41 42  2  0
 42 37  1  0
M  END
> <Smiles>
O=C1CCS/C(=N\S(=O)(=O)c2ccc(N3N=C4c5ccccc5CC4C3c3cccs3)cc2)N1C(=O)c1ccccc1

> <ID>
CHEMBL2263488

> <standard_value>
23800

> <IC50_uM>
23.8

> <Activity>
No

> <pIC50>
4.623423043

> <BCI>
0

$$$$

  SciTegic03012415362D

 26 27  0  0  1  0            999 V2000
   -2.7806   -6.9499    0.0000 C   0  0
   -1.6250   -5.9935    0.0000 O   0  0
   -1.8747   -4.5136    0.0000 C   0  0
   -3.2806   -3.9906    0.0000 O   0  0
   -0.7185   -3.5567    0.0000 C   0  0
   -0.9682   -2.0768    0.0000 S   0  0
    0.1900   -1.1200    0.0000 C   0  0  2  0  0  0
    1.3300   -1.6300    0.0000 C   0  0
    2.3100   -1.1700    0.0000 C   0  0
    3.5183   -2.0588    0.0000 O   0  0
    2.5200    0.3600    0.0000 O   0  0
    4.1500    0.6800    0.0000 C   0  0  1  0  0  0
    5.3192   -0.2597    0.0000 C   0  0
    4.1100    2.4200    0.0000 C   0  0
    2.6000    2.8000    0.0000 C   0  0
    2.3100    4.3400    0.0000 C   0  0
    0.3300    4.3600    0.0000 C   0  0
    0.0000    2.8600    0.0000 C   0  0
   -1.5600    2.3300    0.0000 C   0  0  2  0  0  0
   -3.0100    2.8100    0.0000 C   0  0
   -3.9100    1.5700    0.0000 C   0  0  2  0  0  0
   -5.4100    1.5671    0.0000 O   0  0
   -3.0100    0.3400    0.0000 C   0  0
   -1.5600    0.8100    0.0000 C   0  0  1  0  0  0
    0.0000    0.3600    0.0000 C   0  0  2  0  0  0
    1.1387    1.3364    0.0000 O   0  0
  1  2  1  0
  2  3  1  0
  3  4  2  0
  3  5  1  0
  5  6  1  0
  7  6  1  1
  7  8  1  0
  8  9  1  0
  9 10  2  0
  9 11  1  0
 11 12  1  0
 12 13  1  6
 12 14  1  0
 14 15  1  0
 15 16  1  0
 16 17  1  0
 17 18  2  0
 19 18  1  1
 19 20  1  0
 20 21  1  0
 21 22  1  1
 21 23  1  0
 24 23  1  6
 24 19  1  0
 24 25  1  0
 25  7  1  0
 25 26  1  6
M  END
> <Smiles>
COC(=O)CS[C@@H]1CC(=O)O[C@@H](C)CCC/C=C/[C@@H]2C[C@H](O)C[C@H]2[C@@H]1O

> <ID>
CHEMBL112121

> <standard_value>
24000

> <IC50_uM>
24

> <Activity>
No

> <pIC50>
4.619788758

> <BCI>
0

$$$$

  SciTegic03012415362D

 30 33  0  0  0  0            999 V2000
    2.5983   -3.0004    0.0000 C   0  0
    2.5988   -1.5004    0.0000 S   0  0
    3.8983   -0.7512    0.0000 O   0  0
    3.8975   -2.2510    0.0000 O   0  0
    1.2990   -0.7500    0.0000 C   0  0
    1.2990    0.7500    0.0000 C   0  0
    0.0000    1.5000    0.0000 C   0  0
   -1.2990    0.7500    0.0000 C   0  0
   -1.2990   -0.7500    0.0000 C   0  0
    0.0000   -1.5000    0.0000 C   0  0
   -2.7248   -1.2135    0.0000 C   0  0
   -3.1882   -2.6402    0.0000 O   0  0
   -3.6065    0.0000    0.0000 C   0  0
   -2.7248    1.2135    0.0000 C   0  0
   -3.3339    2.5831    0.0000 N   0  0
   -2.4537    3.7988    0.0000 C   0  0
   -3.0656    5.1692    0.0000 C   0  0
   -2.1854    6.3848    0.0000 C   0  0
   -2.7969    7.7545    0.0000 Br  0  0
   -4.8257    2.7399    0.0000 C   0  0
   -5.4358    4.1102    0.0000 O   0  0
   -5.7073    1.5263    0.0000 C   0  0
   -7.1991    1.6831    0.0000 C   0  0
   -8.0808    0.4696    0.0000 C   0  0
   -9.5737    0.6234    0.0000 N   0  3
  -10.4537   -0.5914    0.0000 O   0  0
  -10.1862    1.9927    0.0000 O   0  5
   -7.4707   -0.9007    0.0000 C   0  0
   -5.9789   -1.0575    0.0000 C   0  0
   -5.0972    0.1560    0.0000 C   0  0
  1  2  1  0
  2  3  2  0
  2  4  2  0
  2  5  1  0
  5  6  2  0
  6  7  1  0
  7  8  2  0
  8  9  1  0
  9 10  2  0
 10  5  1  0
  9 11  1  0
 11 12  2  0
 11 13  1  0
 13 14  2  0
 14  8  1  0
 14 15  1  0
 15 16  1  0
 16 17  1  0
 17 18  1  0
 18 19  1  0
 15 20  1  0
 20 21  2  0
 20 22  1  0
 22 23  2  0
 23 24  1  0
 24 25  1  0
 25 26  2  0
 25 27  1  0
 24 28  2  0
 28 29  1  0
 29 30  2  0
 30 13  1  0
 30 22  1  0
M  CHG  2  25   1  27  -1
M  END
> <Smiles>
CS(=O)(=O)c1ccc2c(c1)C(=O)c1c-2n(CCCBr)c(=O)c2cc([N+](=O)[O-])ccc12

> <ID>
CHEMBL244980

> <standard_value>
24000

> <IC50_uM>
24

> <Activity>
No

> <pIC50>
4.619788758

> <BCI>
0

$$$$

  SciTegic03012415362D

 30 33  0  0  1  0            999 V2000
    3.8983   -0.7459    0.0000 C   0  0
    2.6003   -1.4977    0.0000 O   0  0
    1.2990   -0.7500    0.0000 C   0  0
    1.2990    0.7500    0.0000 C   0  0
    0.0000    1.5000    0.0000 C   0  0
   -1.2990    0.7500    0.0000 C   0  0
   -1.2990   -0.7500    0.0000 C   0  0
    0.0000   -1.5000    0.0000 C   0  0
   -0.0031   -3.0008    0.0000 O   0  0
   -1.3032   -3.7490    0.0000 C   0  0
   -2.5981    1.5000    0.0000 C   0  0  1  0  0  0
   -3.8971    0.7500    0.0000 C   0  0
   -3.8971   -0.7500    0.0000 C   0  0
   -5.1962   -1.5000    0.0000 C   0  0
   -5.1931   -3.0009    0.0000 O   0  0
   -3.8930   -3.7490    0.0000 C   0  0
   -6.4952   -0.7500    0.0000 C   0  0
   -7.7965   -1.4978    0.0000 O   0  0
   -9.0945   -0.7459    0.0000 C   0  0
   -6.4952    0.7500    0.0000 C   0  0
   -7.7965    1.4977    0.0000 O   0  0
   -9.0945    0.7459    0.0000 C   0  0
   -5.1962    1.5000    0.0000 C   0  0
   -5.1962    3.0000    0.0000 O   0  0
   -3.8971    3.7500    0.0000 C   0  0
   -2.5981    3.0000    0.0000 C   0  0  1  0  0  0
   -1.2991    3.7500    0.0000 C   0  0  2  0  0  0
   -1.3022    5.2508    0.0000 C   0  0
   -2.6023    5.9990    0.0000 O   0  0
    0.0000    3.0000    0.0000 C   0  0
  1  2  1  0
  2  3  1  0
  3  4  2  0
  4  5  1  0
  5  6  2  0
  6  7  1  0
  7  8  2  0
  8  3  1  0
  8  9  1  0
  9 10  1  0
 11  6  1  1
 11 12  1  0
 12 13  2  0
 13 14  1  0
 14 15  1  0
 15 16  1  0
 14 17  2  0
 17 18  1  0
 18 19  1  0
 17 20  1  0
 20 21  1  0
 21 22  1  0
 20 23  2  0
 23 12  1  0
 23 24  1  0
 24 25  1  0
 26 25  1  1
 26 11  1  0
 26 27  1  0
 27 28  1  6
 28 29  1  0
 27 30  1  0
 30  5  1  0
M  END
> <Smiles>
COc1cc2c(cc1OC)[C@H]1c3cc(OC)c(OC)c(OC)c3OC[C@H]1[C@H](CO)C2

> <ID>
CHEMBL18008

> <standard_value>
24547.09

> <IC50_uM>
24.54709

> <Activity>
No

> <pIC50>
4.609999985

> <BCI>
0

$$$$

  SciTegic03012415362D

 23 24  0  0  0  0            999 V2000
    2.5413   -9.6209    0.0000 C   0  0
    1.7928   -8.3210    0.0000 C   0  0
    2.5451   -7.0223    0.0000 N   0  0
    1.7974   -5.7210    0.0000 C   0  0
    0.2974   -5.7184    0.0000 O   0  0
    2.5497   -4.4224    0.0000 N   0  0
    1.8032   -3.1233    0.0000 C   0  0
    2.4133   -1.7530    0.0000 N   0  0
    1.2990   -0.7500    0.0000 C   0  0
    1.2990    0.7500    0.0000 C   0  0
    0.0000    1.5000    0.0000 C   0  0
   -1.2990    0.7500    0.0000 C   0  0
   -1.2990   -0.7500    0.0000 C   0  0
    0.0000   -1.5000    0.0000 C   0  0
    0.3114   -2.9665    0.0000 S   0  0
    0.2920   -8.3198    0.0000 C   0  0
   -0.4599   -9.6177    0.0000 F   0  0
   -0.4566   -7.0199    0.0000 F   0  0
   -1.2080   -8.3179    0.0000 F   0  0
    3.3228   -8.3249    0.0000 C   0  0
    4.0702   -9.6254    0.0000 F   0  0
    4.8228   -8.3280    0.0000 F   0  0
    4.0757   -7.0275    0.0000 F   0  0
  1  2  1  0
  2  3  1  0
  3  4  1  0
  4  5  2  0
  4  6  1  0
  6  7  1  0
  7  8  2  0
  8  9  1  0
  9 10  2  0
 10 11  1  0
 11 12  2  0
 12 13  1  0
 13 14  2  0
 14  9  1  0
 14 15  1  0
 15  7  1  0
  2 16  1  0
 16 17  1  0
 16 18  1  0
 16 19  1  0
  2 20  1  0
 20 21  1  0
 20 22  1  0
 20 23  1  0
M  END
> <Smiles>
CC(NC(=O)Nc1nc2ccccc2s1)(C(F)(F)F)C(F)(F)F

> <ID>
CHEMBL573293

> <standard_value>
24547.09

> <IC50_uM>
24.54709

> <Activity>
No

> <pIC50>
4.609999985

> <BCI>
0

$$$$

  SciTegic03012415362D

 36 41  0  0  0  0            999 V2000
    0.4429  -14.3270    0.0000 O   0  0
    1.7636  -13.6160    0.0000 C   0  0
    3.0402  -14.4051    0.0000 N   0  0
    2.9961  -15.9052    0.0000 C   0  0
    4.2709  -16.6958    0.0000 C   0  0
    4.2238  -18.1950    0.0000 C   0  0
    2.9018  -18.9038    0.0000 C   0  0
    1.6270  -18.1134    0.0000 C   0  0
    1.6741  -16.6141    0.0000 C   0  0
    1.8077  -12.1158    0.0000 N   0  0
    0.5311  -11.3267    0.0000 S   0  0
    0.4863  -12.8260    0.0000 O   0  0
   -0.7897  -12.0378    0.0000 O   0  0
    0.5752   -9.8265    0.0000 C   0  0
   -0.7012   -9.0386    0.0000 C   0  0
   -0.6571   -7.5393    0.0000 C   0  0
    0.6594   -6.8309    0.0000 C   0  0
    0.8163   -5.3384    0.0000 N   0  0
   -0.2984   -4.3347    0.0000 N   0  0
    0.3114   -2.9665    0.0000 C   0  0
    1.8032   -3.1233    0.0000 C   0  0
    2.1153   -4.5884    0.0000 C   0  0
    3.4865   -5.1985    0.0000 C   0  0
    4.8163   -4.5434    0.0000 C   0  0
    5.8492   -5.6311    0.0000 C   0  0
    5.1339   -6.9496    0.0000 C   0  0
    3.6589   -6.6767    0.0000 S   0  0
    2.4133   -1.7530    0.0000 C   0  0
    1.2990   -0.7500    0.0000 C   0  0
    1.2990    0.7500    0.0000 C   0  0
    0.0000    1.5000    0.0000 C   0  0
   -1.2990    0.7500    0.0000 C   0  0
   -1.2990   -0.7500    0.0000 C   0  0
    0.0000   -1.5000    0.0000 C   0  0
    1.9398   -7.6157    0.0000 C   0  0
    1.8957   -9.1150    0.0000 C   0  0
  1  2  2  0
  2  3  1  0
  3  4  1  0
  4  5  2  0
  5  6  1  0
  6  7  2  0
  7  8  1  0
  8  9  2  0
  9  4  1  0
  2 10  1  0
 10 11  1  0
 11 12  2  0
 11 13  2  0
 11 14  1  0
 14 15  2  0
 15 16  1  0
 16 17  2  0
 17 18  1  0
 18 19  1  0
 19 20  2  0
 20 21  1  0
 21 22  2  0
 22 18  1  0
 22 23  1  0
 23 24  2  0
 24 25  1  0
 25 26  2  0
 26 27  1  0
 27 23  1  0
 21 28  1  0
 28 29  1  0
 29 30  2  0
 30 31  1  0
 31 32  2  0
 32 33  1  0
 33 34  2  0
 34 29  1  0
 34 20  1  0
 17 35  1  0
 35 36  2  0
 36 14  1  0
M  END
> <Smiles>
O=C(Nc1ccccc1)NS(=O)(=O)c1ccc(-n2nc3c(c2-c2cccs2)Cc2ccccc2-3)cc1

> <ID>
CHEMBL2263481

> <standard_value>
25000

> <IC50_uM>
25

> <Activity>
No

> <pIC50>
4.602059991

> <BCI>
0

$$$$

  SciTegic03012415362D

 30 32  0  0  1  0            999 V2000
   -6.7541   -6.8465    0.0000 C   0  0
   -5.3499   -7.3739    0.0000 O   0  0
   -4.1898   -6.4217    0.0000 C   0  0
   -2.7848   -6.9471    0.0000 C   0  0
   -1.6273   -5.9931    0.0000 C   0  0
   -1.8747   -4.5136    0.0000 C   0  0
   -0.7185   -3.5567    0.0000 C   0  0
   -0.9682   -2.0768    0.0000 S   0  0
    0.1900   -1.1200    0.0000 C   0  0  2  0  0  0
    1.3300   -1.6300    0.0000 C   0  0
    2.3100   -1.1700    0.0000 C   0  0
    3.5183   -2.0588    0.0000 O   0  0
    2.5200    0.3600    0.0000 O   0  0
    4.1500    0.6800    0.0000 C   0  0  1  0  0  0
    5.3192   -0.2597    0.0000 C   0  0
    4.1100    2.4200    0.0000 C   0  0
    2.6000    2.8000    0.0000 C   0  0
    2.3100    4.3400    0.0000 C   0  0
    0.3300    4.3600    0.0000 C   0  0
    0.0000    2.8600    0.0000 C   0  0
   -1.5600    2.3300    0.0000 C   0  0  2  0  0  0
   -3.0100    2.8100    0.0000 C   0  0
   -3.9100    1.5700    0.0000 C   0  0  2  0  0  0
   -5.4100    1.5671    0.0000 O   0  0
   -3.0100    0.3400    0.0000 C   0  0
   -1.5600    0.8100    0.0000 C   0  0  1  0  0  0
    0.0000    0.3600    0.0000 C   0  0  2  0  0  0
    1.1387    1.3364    0.0000 O   0  0
   -3.2798   -3.9882    0.0000 C   0  0
   -4.4373   -4.9423    0.0000 C   0  0
  1  2  1  0
  2  3  1  0
  3  4  2  0
  4  5  1  0
  5  6  2  0
  6  7  1  0
  7  8  1  0
  9  8  1  1
  9 10  1  0
 10 11  1  0
 11 12  2  0
 11 13  1  0
 13 14  1  0
 14 15  1  6
 14 16  1  0
 16 17  1  0
 17 18  1  0
 18 19  1  0
 19 20  2  0
 21 20  1  1
 21 22  1  0
 22 23  1  0
 23 24  1  1
 23 25  1  0
 26 25  1  6
 26 21  1  0
 26 27  1  0
 27  9  1  0
 27 28  1  6
  6 29  1  0
 29 30  2  0
 30  3  1  0
M  END
> <Smiles>
COc1ccc(CS[C@@H]2CC(=O)O[C@@H](C)CCC/C=C/[C@@H]3C[C@H](O)C[C@H]3[C@@H]2O)cc1

> <ID>
CHEMBL338229

> <standard_value>
25100

> <IC50_uM>
25.1

> <Activity>
No

> <pIC50>
4.600326279

> <BCI>
0

$$$$

  SciTegic03012415362D

 18 20  0  0  0  0            999 V2000
    3.8983   -0.7459    0.0000 C   0  0
    2.6003   -1.4977    0.0000 O   0  0
    1.2990   -0.7500    0.0000 C   0  0
    1.2990    0.7500    0.0000 C   0  0
    0.0000    1.5000    0.0000 C   0  0
   -0.0031    3.0008    0.0000 C   0  0
   -1.3032    3.7490    0.0000 O   0  0
    1.2946    3.7531    0.0000 O   0  0
   -1.2990    0.7500    0.0000 C   0  0
   -1.2990   -0.7500    0.0000 C   0  0
    0.0000   -1.5000    0.0000 C   0  0
   -0.3114   -2.9665    0.0000 N   0  0
   -1.8032   -3.1233    0.0000 C   0  0
   -2.6837   -4.3363    0.0000 C   0  0
   -4.1755   -4.1795    0.0000 C   0  0
   -4.7856   -2.8092    0.0000 C   0  0
   -3.9040   -1.5957    0.0000 C   0  0
   -2.4133   -1.7530    0.0000 C   0  0
  1  2  1  0
  2  3  1  0
  3  4  2  0
  4  5  1  0
  5  6  1  0
  6  7  2  0
  6  8  1  0
  5  9  2  0
  9 10  1  0
 10 11  2  0
 11  3  1  0
 11 12  1  0
 12 13  1  0
 13 14  2  0
 14 15  1  0
 15 16  2  0
 16 17  1  0
 17 18  2  0
 18 13  1  0
 18 10  1  0
M  END
> <Smiles>
COc1cc(C(=O)O)cc2c1[nH]c1ccccc12

> <ID>
CHEMBL498081

> <standard_value>
25118.86

> <IC50_uM>
25.11886

> <Activity>
No

> <pIC50>
4.600000075

> <BCI>
0

$$$$

  SciTegic03012415362D

 22 24  0  0  0  0            999 V2000
    1.2948   -3.7516    0.0000 N   0  0
    2.5951   -3.0039    0.0000 C   0  0
    3.8926   -3.7566    0.0000 O   0  0
    2.5973   -1.5031    0.0000 N   0  0
    1.2990   -0.7500    0.0000 C   0  0
    1.2990    0.7500    0.0000 C   0  0
    0.0000    1.5000    0.0000 C   0  0
   -1.2990    0.7500    0.0000 C   0  0
   -2.5981    1.5000    0.0000 N   0  0
   -3.8971    0.7500    0.0000 C   0  0
   -3.8971   -0.7500    0.0000 N   0  0
   -2.5981   -1.5000    0.0000 C   0  0
   -2.6011   -3.0008    0.0000 N   0  0
   -3.9020   -3.7494    0.0000 C   0  0
   -3.9072   -5.2494    0.0000 C   0  0
   -5.2089   -5.9949    0.0000 C   0  0
   -6.5053   -5.2405    0.0000 C   0  0
   -7.8069   -5.9860    0.0000 Cl  0  0
   -6.5001   -3.7405    0.0000 C   0  0
   -5.1985   -2.9950    0.0000 C   0  0
   -1.2990   -0.7500    0.0000 C   0  0
    0.0000   -1.5000    0.0000 C   0  0
  1  2  1  0
  2  3  2  0
  2  4  1  0
  4  5  1  0
  5  6  2  0
  6  7  1  0
  7  8  2  0
  8  9  1  0
  9 10  2  0
 10 11  1  0
 11 12  2  0
 12 13  1  0
 13 14  1  0
 14 15  2  0
 15 16  1  0
 16 17  2  0
 17 18  1  0
 17 19  1  0
 19 20  2  0
 20 14  1  0
 12 21  1  0
 21  8  1  0
 21 22  2  0
 22  5  1  0
M  END
> <Smiles>
NC(=O)Nc1ccc2ncnc(Nc3ccc(Cl)cc3)c2c1

> <ID>
CHEMBL2347231

> <standard_value>
25500

> <IC50_uM>
25.5

> <Activity>
No

> <pIC50>
4.59345982

> <BCI>
0

$$$$

  SciTegic03012415362D

 29 31  0  0  1  0            999 V2000
    1.4465   -8.5129    0.0000 C   0  0
    0.0394   -7.9934    0.0000 O   0  0
   -0.2154   -6.5143    0.0000 C   0  0
   -1.6218   -5.9928    0.0000 C   0  0
   -1.8734   -4.5141    0.0000 C   0  0
   -0.7185   -3.5567    0.0000 C   0  0
   -0.9682   -2.0768    0.0000 S   0  0
    0.1900   -1.1200    0.0000 C   0  0  2  0  0  0
    1.3300   -1.6300    0.0000 C   0  0
    2.3100   -1.1700    0.0000 C   0  0
    3.5183   -2.0588    0.0000 O   0  0
    2.5200    0.3600    0.0000 O   0  0
    4.1500    0.6800    0.0000 C   0  0  1  0  0  0
    5.3192   -0.2597    0.0000 C   0  0
    4.1100    2.4200    0.0000 C   0  0
    2.6000    2.8000    0.0000 C   0  0
    2.3100    4.3400    0.0000 C   0  0
    0.3300    4.3600    0.0000 C   0  0
    0.0000    2.8600    0.0000 C   0  0
   -1.5600    2.3300    0.0000 C   0  0  2  0  0  0
   -3.0100    2.8100    0.0000 C   0  0
   -3.9100    1.5700    0.0000 C   0  0  2  0  0  0
   -5.4100    1.5671    0.0000 O   0  0
   -3.0100    0.3400    0.0000 C   0  0
   -1.5600    0.8100    0.0000 C   0  0  1  0  0  0
    0.0000    0.3600    0.0000 C   0  0  2  0  0  0
    1.1387    1.3364    0.0000 O   0  0
    0.6879   -4.0783    0.0000 C   0  0
    0.9395   -5.5571    0.0000 C   0  0
  1  2  1  0
  2  3  1  0
  3  4  2  0
  4  5  1  0
  5  6  2  0
  6  7  1  0
  8  7  1  1
  8  9  1  0
  9 10  1  0
 10 11  2  0
 10 12  1  0
 12 13  1  0
 13 14  1  6
 13 15  1  0
 15 16  1  0
 16 17  1  0
 17 18  1  0
 18 19  2  0
 20 19  1  1
 20 21  1  0
 21 22  1  0
 22 23  1  1
 22 24  1  0
 25 24  1  6
 25 20  1  0
 25 26  1  0
 26  8  1  0
 26 27  1  6
  6 28  1  0
 28 29  2  0
 29  3  1  0
M  END
> <Smiles>
COc1ccc(S[C@@H]2CC(=O)O[C@@H](C)CCC/C=C/[C@@H]3C[C@H](O)C[C@H]3[C@@H]2O)cc1

> <ID>
CHEMBL113088

> <standard_value>
26000

> <IC50_uM>
26

> <Activity>
No

> <pIC50>
4.585026652

> <BCI>
0

$$$$

  SciTegic03012415362D

 24 27  0  0  1  0            999 V2000
    6.4983   -0.7414    0.0000 C   0  0
    5.2003   -1.4932    0.0000 C   0  0
    3.8990   -0.7455    0.0000 C   0  0
    2.6003   -1.4977    0.0000 C   0  0
    1.2990   -0.7500    0.0000 C   0  0
    1.2990    0.7500    0.0000 C   0  0
    0.0000    1.5000    0.0000 C   0  0
   -1.2990    0.7500    0.0000 C   0  0
   -1.2990   -0.7500    0.0000 C   0  0
    0.0000   -1.5000    0.0000 C   0  0
    0.0000   -3.0000    0.0000 O   0  0
   -2.5981    1.5000    0.0000 C   0  0
   -2.5981    3.0000    0.0000 C   0  0
   -1.2991    3.7500    0.0000 C   0  0  2  0  0  0
    0.0000    3.0000    0.0000 C   0  0  2  0  0  0
    1.2990    3.7500    0.0000 C   0  0
    1.2990    5.2500    0.0000 C   0  0
    0.0000    6.0000    0.0000 C   0  0  2  0  0  0
    1.2211    6.8711    0.0000 C   0  0
   -0.2851    7.4666    0.0000 C   0  0  1  0  0  0
    0.7318    8.5693    0.0000 O   0  0
   -1.7759    7.6329    0.0000 C   0  0
   -2.3947    6.2665    0.0000 C   0  0
   -1.2991    5.2500    0.0000 C   0  0  1  0  0  0
  1  2  1  0
  2  3  1  0
  3  4  1  0
  4  5  1  0
  5  6  2  0
  6  7  1  0
  7  8  2  0
  8  9  1  0
  9 10  2  0
 10  5  1  0
 10 11  1  0
  8 12  1  0
 12 13  1  0
 14 13  1  1
 14 15  1  0
 15  7  1  0
 15 16  1  6
 16 17  1  0
 17 18  1  0
 18 19  1  6
 18 20  1  0
 20 21  1  6
 20 22  1  0
 22 23  1  0
 24 23  1  6
 24 14  1  0
 24 18  1  0
M  END
> <Smiles>
CCCCc1cc2c(cc1O)CC[C@@H]1[C@@H]2CC[C@]2(C)[C@@H](O)CC[C@@H]12

> <ID>
CHEMBL242428

> <standard_value>
26000

> <IC50_uM>
26

> <Activity>
No

> <pIC50>
4.585026652

> <BCI>
0

$$$$

  SciTegic03012415362D

 29 31  0  0  0  0            999 V2000
    6.4995    0.7484    0.0000 O   0  0
    6.4990   -0.7516    0.0000 C   0  0
    5.1988   -1.5012    0.0000 N   0  0
    3.8990   -0.7508    0.0000 N   0  0
    2.5988   -1.5004    0.0000 S   0  0
    3.8975   -2.2510    0.0000 O   0  0
    2.5983   -3.0004    0.0000 O   0  0
    1.2990   -0.7500    0.0000 C   0  0
    1.2990    0.7500    0.0000 C   0  0
    0.0000    1.5000    0.0000 C   0  0
   -1.2990    0.7500    0.0000 C   0  0
   -2.5981    1.5000    0.0000 F   0  0
   -1.2990   -0.7500    0.0000 C   0  0
    0.0000   -1.5000    0.0000 C   0  0
    7.7988   -1.5020    0.0000 C   0  0
    7.7958   -3.0021    0.0000 C   0  0
    9.0933   -3.7547    0.0000 C   0  0
   10.3938   -3.0074    0.0000 C   0  0
   10.3969   -1.5074    0.0000 N   0  0
    9.0994   -0.7548    0.0000 C   0  0
    9.1056    0.7461    0.0000 N   0  0
   10.4079    1.4919    0.0000 C   0  0
   11.7029    0.7348    0.0000 C   0  0
   13.0061    1.4776    0.0000 C   0  0
   13.0143    2.9776    0.0000 C   0  0
   14.3175    3.7204    0.0000 Cl  0  0
   11.7195    3.7348    0.0000 C   0  0
   10.4163    2.9919    0.0000 C   0  0
    9.1215    3.7491    0.0000 Cl  0  0
  1  2  2  0
  2  3  1  0
  3  4  1  0
  4  5  1  0
  5  6  2  0
  5  7  2  0
  5  8  1  0
  8  9  2  0
  9 10  1  0
 10 11  2  0
 11 12  1  0
 11 13  1  0
 13 14  2  0
 14  8  1  0
  2 15  1  0
 15 16  2  0
 16 17  1  0
 17 18  2  0
 18 19  1  0
 19 20  2  0
 20 15  1  0
 20 21  1  0
 21 22  1  0
 22 23  2  0
 23 24  1  0
 24 25  2  0
 25 26  1  0
 25 27  1  0
 27 28  2  0
 28 22  1  0
 28 29  1  0
M  END
> <Smiles>
O=C(NNS(=O)(=O)c1ccc(F)cc1)c1cccnc1Nc1ccc(Cl)cc1Cl

> <ID>
CHEMBL227913

> <standard_value>
26302.68

> <IC50_uM>
26.30268

> <Activity>
No

> <pIC50>
4.579999999

> <BCI>
0

$$$$

  SciTegic03012415362D

 47 52  0  0  1  0            999 V2000
   10.1386    0.4303    0.0000 C   0  0
    8.8395   -0.3195    0.0000 C   0  0
    8.8397   -1.8195    0.0000 C   0  0
    7.5394    0.4303    0.0000 C   0  0
    6.2395   -0.3199    0.0000 C   0  0
    6.2397   -1.8199    0.0000 O   0  0
    4.9394    0.4299    0.0000 O   0  0
    3.6400   -0.3200    0.0000 C   0  0  1  0  0  0
    3.6400   -1.8700    0.0000 C   0  0
    4.9392   -2.6198    0.0000 O   0  0
    2.2900   -2.6500    0.0000 O   0  0
    0.9500   -1.8700    0.0000 C   0  0  2  0  0  0
   -0.4000   -2.6500    0.0000 C   0  0
   -1.7400   -1.8700    0.0000 C   0  0  1  0  0  0
   -3.0900   -2.6500    0.0000 C   0  0  2  0  0  0
   -3.0900   -4.1500    0.0000 C   0  0
   -4.4400   -1.8700    0.0000 C   0  0
   -5.7392   -2.6198    0.0000 O   0  0
   -4.4400   -0.3200    0.0000 C   0  0
   -5.7363    0.4353    0.0000 O   0  0
   -5.7313    1.9361    0.0000 C   0  0  2  0  0  0
   -4.4282    2.6792    0.0000 O   0  0
   -4.4202    4.1792    0.0000 C   0  0  2  0  0  0
   -3.1149    4.9200    0.0000 C   0  0
   -1.8210    4.1612    0.0000 O   0  0
   -5.7152    4.9361    0.0000 C   0  0  1  0  0  0
   -5.7072    6.4361    0.0000 O   0  0
   -7.0182    4.1931    0.0000 C   0  0  2  0  0  0
   -8.3132    4.9501    0.0000 O   0  0
   -7.0263    2.6931    0.0000 C   0  0  1  0  0  0
   -8.3293    1.9501    0.0000 O   0  0
   -3.0900    0.4500    0.0000 C   0  0
   -1.7400   -0.3200    0.0000 C   0  0  1  0  0  0
   -1.7424    1.1800    0.0000 C   0  0
   -0.4000    0.4500    0.0000 C   0  0  1  0  0  0
   -0.4000    2.0000    0.0000 C   0  0  1  0  0  0
   -1.6992    2.7498    0.0000 O   0  0
    0.9500    2.7800    0.0000 C   0  0  2  0  0  0
    0.9524    4.2800    0.0000 O   0  0
    2.2900    2.0000    0.0000 C   0  0  2  0  0  0
    1.5148    3.3015    0.0000 C   0  0
    2.2668    4.5994    0.0000 O   0  0
    0.0148    3.3042    0.0000 O   0  0
    0.9600    1.8100    0.0000 O   0  0
    0.3700    0.7400    0.0000 C   0  0
    0.9500   -0.3200    0.0000 C   0  0  1  0  0  0
    2.2900    0.4500    0.0000 C   0  0  1  0  0  0
  1  2  1  0
  2  3  1  0
  2  4  2  0
  4  5  1  0
  5  6  2  0
  5  7  1  0
  8  7  1  1
  8  9  1  0
  9 10  2  0
  9 11  1  0
 12 11  1  6
 12 13  1  0
 14 13  1  1
 14 15  1  0
 15 16  1  6
 15 17  1  0
 17 18  2  0
 17 19  1  0
 19 20  1  0
 21 20  1  1
 21 22  1  0
 22 23  1  0
 23 24  1  1
 24 25  1  0
 23 26  1  0
 26 27  1  6
 26 28  1  0
 28 29  1  1
 28 30  1  0
 30 21  1  0
 30 31  1  6
 19 32  2  0
 32 33  1  0
 33 14  1  0
 33 34  1  1
 35 33  1  1
 35 36  1  0
 36 37  1  1
 36 38  1  0
 38 39  1  6
 38 40  1  0
 40 41  1  6
 41 42  2  0
 41 43  1  0
 40 44  1  0
 44 45  1  0
 46 45  1  1
 46 35  1  0
 46 12  1  0
 47 46  1  6
 47  8  1  0
 47 40  1  0
M  END
> <Smiles>
CC(C)=CC(=O)O[C@H]1C(=O)O[C@@H]2C[C@H]3[C@H](C)C(=O)C(O[C@@H]4O[C@H](CO)[C@@H](O)[C@H](O)[C@H]4O)=C[C@]3(C)[C@H]3[C@@H](O)[C@H](O)[C@]4(C(=O)O)OC[C@]32[C@@H]14

> <ID>
CHEMBL505146

> <standard_value>
26302.68

> <IC50_uM>
26.30268

> <Activity>
No

> <pIC50>
4.579999999

> <BCI>
0

$$$$

  SciTegic03012415362D

 15 16  0  0  0  0            999 V2000
    7.3217   -3.0628    0.0000 O   0  0
    6.4437   -1.8466    0.0000 C   0  0
    4.9531   -1.9978    0.0000 N   0  0
    4.2010   -3.2956    0.0000 C   0  0
    2.7343   -2.9815    0.0000 C   0  0
    2.5987   -1.5004    0.0000 N   0  0
    1.2990   -0.7500    0.0000 C   0  0
    1.2990    0.7500    0.0000 C   0  0
    0.0000    1.5000    0.0000 C   0  0
   -1.2990    0.7500    0.0000 C   0  0
   -2.5981    1.5000    0.0000 Cl  0  0
   -1.2990   -0.7500    0.0000 C   0  0
    0.0000   -1.5000    0.0000 C   0  0
    3.9511   -0.8815    0.0000 C   0  0
    4.2566    0.5871    0.0000 S   0  0
  1  2  2  0
  2  3  1  0
  3  4  1  0
  4  5  1  0
  5  6  1  0
  6  7  1  0
  7  8  2  0
  8  9  1  0
  9 10  2  0
 10 11  1  0
 10 12  1  0
 12 13  2  0
 13  7  1  0
  6 14  1  0
 14  3  1  0
 14 15  2  0
M  END
> <Smiles>
O=CN1CCN(c2ccc(Cl)cc2)C1=S

> <ID>
CHEMBL505532

> <standard_value>
26600

> <IC50_uM>
26.6

> <Activity>
No

> <pIC50>
4.575118363

> <BCI>
0

$$$$

  SciTegic03012415362D

 29 32  0  0  0  0            999 V2000
    3.7332   -0.7121    0.0000 O   0  0
    3.1255   -2.0835    0.0000 C   0  0
    1.6332   -2.2426    0.0000 C   0  0
    0.7500   -1.0323    0.0000 C   0  0
    1.2135    0.3943    0.0000 C   0  0
    0.0000    1.2760    0.0000 S   0  0
   -1.2135    0.3943    0.0000 C   0  0
   -2.7115    0.3949    0.0000 N   0  0
   -3.1750   -1.0317    0.0000 C   0  0
   -4.6023   -1.4954    0.0000 C   0  0
   -5.7850   -0.5808    0.0000 C   0  0
   -7.1726   -1.1503    0.0000 C   0  0
   -7.3732   -2.6369    0.0000 C   0  0
   -8.7608   -3.2064    0.0000 Br  0  0
   -6.1861   -3.5538    0.0000 C   0  0
   -4.7984   -2.9843    0.0000 C   0  0
   -1.9615   -1.9133    0.0000 C   0  0
   -0.7500   -1.0323    0.0000 N   0  0
    4.0102   -3.2959    0.0000 N   0  0
    5.5026   -3.1368    0.0000 N   0  0
    6.3873   -4.3492    0.0000 C   0  0
    7.8797   -4.1902    0.0000 C   0  0
    8.4851   -2.8177    0.0000 C   0  0
    9.9763   -2.6557    0.0000 C   0  0
   10.8622   -3.8662    0.0000 C   0  0
   12.3534   -3.7042    0.0000 Cl  0  0
   10.2569   -5.2386    0.0000 C   0  0
    8.7656   -5.4006    0.0000 C   0  0
    8.1604   -6.7730    0.0000 Cl  0  0
  1  2  2  0
  2  3  1  0
  3  4  1  0
  4  5  2  0
  5  6  1  0
  6  7  1  0
  7  8  2  0
  8  9  1  0
  9 10  1  0
 10 11  2  0
 11 12  1  0
 12 13  2  0
 13 14  1  0
 13 15  1  0
 15 16  2  0
 16 10  1  0
  9 17  2  0
 17 18  1  0
 18  4  1  0
 18  7  1  0
  2 19  1  0
 19 20  1  0
 20 21  2  0
 21 22  1  0
 22 23  2  0
 23 24  1  0
 24 25  2  0
 25 26  1  0
 25 27  1  0
 27 28  2  0
 28 22  1  0
 28 29  1  0
M  END
> <Smiles>
O=C(Cc1csc2nc(-c3ccc(Br)cc3)cn12)N/N=C/c1ccc(Cl)cc1Cl

> <ID>
CHEMBL231606

> <standard_value>
26915.35

> <IC50_uM>
26.91535

> <Activity>
No

> <pIC50>
4.569999968

> <BCI>
0

$$$$

  SciTegic03012415362D

 21 23  0  0  0  0            999 V2000
   10.5803   -1.2744    0.0000 C   0  0
    9.9769   -2.6477    0.0000 O   0  0
    8.4852   -2.8129    0.0000 C   0  0
    7.8798   -4.1853    0.0000 C   0  0
    6.3886   -4.3473    0.0000 C   0  0
    5.5026   -3.1368    0.0000 C   0  0
    4.0102   -3.2959    0.0000 N   0  0
    3.1255   -2.0835    0.0000 C   0  0
    3.7332   -0.7121    0.0000 O   0  0
    1.6332   -2.2426    0.0000 C   0  0
    0.7500   -1.0323    0.0000 C   0  0  3  0  0  0
    1.2135    0.3943    0.0000 S   0  0
    0.0000    1.2760    0.0000 C   0  0
   -0.4623    2.7009    0.0000 N   0  0
   -1.9623    2.7008    0.0000 C   0  0
   -2.4258    1.2743    0.0000 N   0  0
   -1.2135    0.3943    0.0000 N   0  0
   -0.7500   -1.0323    0.0000 C   0  0
   -1.6317   -2.2458    0.0000 O   0  0
    6.1080   -1.7644    0.0000 C   0  0
    7.5993   -1.6024    0.0000 C   0  0
  1  2  1  0
  2  3  1  0
  3  4  2  0
  4  5  1  0
  5  6  2  0
  6  7  1  0
  7  8  1  0
  8  9  2  0
  8 10  1  0
 11 10  1  4
 11 12  1  0
 12 13  1  0
 13 14  2  0
 14 15  1  0
 15 16  2  0
 16 17  1  0
 17 13  1  0
 17 18  1  0
 18 11  1  0
 18 19  2  0
  6 20  1  0
 20 21  2  0
 21  3  1  0
M  END
> <Smiles>
COc1ccc(NC(=O)CC2Sc3ncnn3C2=O)cc1

> <ID>
CHEMBL243644

> <standard_value>
26915.35

> <IC50_uM>
26.91535

> <Activity>
No

> <pIC50>
4.569999968

> <BCI>
0

$$$$

  SciTegic03012415362D

 26 28  0  0  0  0            999 V2000
    2.6030   -2.9977    0.0000 O   0  0
    2.6003   -1.4977    0.0000 C   0  0
    1.2990   -0.7500    0.0000 C   0  0
    1.2990    0.7500    0.0000 C   0  0
    0.0000    1.5000    0.0000 C   0  0
   -1.2990    0.7500    0.0000 C   0  0
   -2.5981    1.5000    0.0000 Cl  0  0
   -1.2990   -0.7500    0.0000 C   0  0
    0.0000   -1.5000    0.0000 C   0  0
    0.0000   -3.0000    0.0000 Cl  0  0
    3.8990   -0.7455    0.0000 N   0  0
    4.0317    0.7359    0.0000 C   0  0
    5.4979    1.0528    0.0000 C   0  0
    6.2524   -0.2436    0.0000 N   0  0
    7.7433   -0.3919    0.0000 C   0  0
    8.3605   -1.7590    0.0000 O   0  0
    8.6194    0.8266    0.0000 C   0  0
    7.9999    2.1927    0.0000 C   0  0
    8.8731    3.4124    0.0000 C   0  0
   10.3659    3.2659    0.0000 C   0  0
   11.2392    4.4855    0.0000 Cl  0  0
   10.9855    1.8999    0.0000 C   0  0
   10.1123    0.6803    0.0000 C   0  0
   10.7320   -0.6858    0.0000 Cl  0  0
    5.2526   -1.3618    0.0000 C   0  0
    5.5608   -2.8298    0.0000 S   0  0
  1  2  2  0
  2  3  1  0
  3  4  2  0
  4  5  1  0
  5  6  2  0
  6  7  1  0
  6  8  1  0
  8  9  2  0
  9  3  1  0
  9 10  1  0
  2 11  1  0
 11 12  1  0
 12 13  1  0
 13 14  1  0
 14 15  1  0
 15 16  2  0
 15 17  1  0
 17 18  2  0
 18 19  1  0
 19 20  2  0
 20 21  1  0
 20 22  1  0
 22 23  2  0
 23 17  1  0
 23 24  1  0
 14 25  1  0
 25 11  1  0
 25 26  2  0
M  END
> <Smiles>
O=C(c1ccc(Cl)cc1Cl)N1CCN(C(=O)c2ccc(Cl)cc2Cl)C1=S

> <ID>
CHEMBL471764

> <standard_value>
27200

> <IC50_uM>
27.2

> <Activity>
No

> <pIC50>
4.565431096

> <BCI>
0

$$$$

  SciTegic03012415362D

 20 22  0  0  0  0            999 V2000
    3.8983   -0.7459    0.0000 C   0  0
    2.6003   -1.4977    0.0000 O   0  0
    1.2990   -0.7500    0.0000 C   0  0
    1.2990    0.7500    0.0000 C   0  0
    0.0000    1.5000    0.0000 C   0  0
    0.0000    3.0000    0.0000 O   0  0
   -1.2990    0.7500    0.0000 C   0  0
   -1.2990   -0.7500    0.0000 C   0  0
   -2.5981   -1.5000    0.0000 C   0  0
   -2.5981   -3.0000    0.0000 C   0  0
   -3.8971   -3.7500    0.0000 O   0  0
   -3.8971   -5.2500    0.0000 C   0  0
   -5.1961   -6.0000    0.0000 C   0  0
   -2.5980   -6.0000    0.0000 C   0  0
   -1.2990   -5.2500    0.0000 C   0  0
    0.0000   -6.0000    0.0000 O   0  0
   -1.2990   -3.7500    0.0000 C   0  0
    0.0000   -3.0000    0.0000 C   0  0
    1.2991   -3.7500    0.0000 O   0  0
    0.0000   -1.5000    0.0000 C   0  0
  1  2  1  0
  2  3  1  0
  3  4  2  0
  4  5  1  0
  5  6  1  0
  5  7  2  0
  7  8  1  0
  8  9  2  0
  9 10  1  0
 10 11  1  0
 11 12  1  0
 12 13  1  0
 12 14  2  0
 14 15  1  0
 15 16  2  0
 15 17  1  0
 17 10  2  0
 17 18  1  0
 18 19  1  0
 18 20  2  0
 20  3  1  0
 20  8  1  0
M  END
> <Smiles>
COc1cc(O)cc2cc3oc(C)cc(=O)c3c(O)c12

> <ID>
CHEMBL252106

> <standard_value>
27542.29

> <IC50_uM>
27.54229

> <Activity>
No

> <pIC50>
4.559999953

> <BCI>
0

$$$$

  SciTegic03012415362D

 41 44  0  0  0  0            999 V2000
   12.9399   10.5543    0.0000 C   0  0
   11.6450    9.7971    0.0000 C   0  0
   11.6523    8.2963    0.0000 O   0  0
   10.3568    7.5387    0.0000 C   0  0
    9.0538    8.2819    0.0000 O   0  0
   10.3641    6.0379    0.0000 C   0  0
    9.0685    5.2803    0.0000 C   0  0
    9.0758    3.7795    0.0000 C   0  0  3  0  0  0
    7.7802    3.0220    0.0000 N   0  0
    7.7876    1.5211    0.0000 C   0  0
    9.0905    0.7779    0.0000 O   0  0
    6.4920    0.7636    0.0000 C   0  0
    6.4972   -0.7364    0.0000 C   0  0
    5.2007   -1.4909    0.0000 C   0  0
    3.8990   -0.7455    0.0000 C   0  0
    2.6003   -1.4977    0.0000 N   0  0
    1.2990   -0.7500    0.0000 C   0  0
    1.2990    0.7500    0.0000 N   0  0
    0.0000    1.5000    0.0000 C   0  0
    0.0000    3.0000    0.0000 C   0  0
   -1.2991    3.7500    0.0000 C   0  0
   -1.2991    5.2500    0.0000 N   0  0
   -2.5981    3.0000    0.0000 C   0  0
   -2.5981    1.5000    0.0000 C   0  0
   -3.8971    0.7500    0.0000 N   0  0
   -1.2990    0.7500    0.0000 C   0  0
   -1.2990   -0.7500    0.0000 N   0  0
    0.0000   -1.5000    0.0000 C   0  0
    0.0000   -3.0008    0.0000 C   0  0
   -1.2978   -3.7529    0.0000 C   0  0
   -1.2955   -5.2529    0.0000 C   0  0
    0.0048   -6.0009    0.0000 C   0  0
    1.3026   -5.2488    0.0000 C   0  0
    1.3002   -3.7488    0.0000 C   0  0
    3.8939    0.7546    0.0000 C   0  0
    5.1903    1.5091    0.0000 C   0  0
   10.3779    3.0332    0.0000 C   0  0
   11.6744    3.7877    0.0000 O   0  0
   10.3836    1.5324    0.0000 O   0  0
   11.6857    0.7861    0.0000 C   0  0
   11.6914   -0.7139    0.0000 C   0  0
  1  2  1  0
  2  3  1  0
  3  4  1  0
  4  5  2  0
  4  6  1  0
  6  7  1  0
  8  7  1  4
  8  9  1  0
  9 10  1  0
 10 11  2  0
 10 12  1  0
 12 13  2  0
 13 14  1  0
 14 15  2  0
 15 16  1  0
 16 17  1  0
 17 18  2  0
 18 19  1  0
 19 20  2  0
 20 21  1  0
 21 22  1  0
 21 23  2  0
 23 24  1  0
 24 25  1  0
 24 26  2  0
 26 19  1  0
 26 27  1  0
 27 28  2  0
 28 17  1  0
 28 29  1  0
 29 30  2  0
 30 31  1  0
 31 32  2  0
 32 33  1  0
 33 34  2  0
 34 29  1  0
 15 35  1  0
 35 36  2  0
 36 12  1  0
  8 37  1  0
 37 38  2  0
 37 39  1  0
 39 40  1  0
 40 41  1  0
M  END
> <Smiles>
CCOC(=O)CCC(NC(=O)c1ccc(Nc2nc3cc(N)cc(N)c3nc2-c2ccccc2)cc1)C(=O)OCC

> <ID>
CHEMBL463667

> <standard_value>
27542.29

> <IC50_uM>
27.54229

> <Activity>
No

> <pIC50>
4.559999953

> <BCI>
0

$$$$

  SciTegic03012415362D

 22 25  0  0  0  0            999 V2000
    0.7082   -6.7242    0.0000 O   0  0
    2.0628   -6.0800    0.0000 C   0  0
    2.1831   -4.5866    0.0000 C   0  0
    3.4619   -3.8026    0.0000 C   0  0
    3.1114   -2.3441    0.0000 C   0  0
    1.6321   -2.2464    0.0000 C   0  0
    0.7500   -1.0323    0.0000 C   0  0
    1.2135    0.3943    0.0000 N   0  0
    0.0000    1.2760    0.0000 N   0  0
    0.0031    2.7742    0.0000 C   0  0
    1.3039    3.5228    0.0000 C   0  0
    1.3092    5.0228    0.0000 C   0  0
    2.6109    5.7683    0.0000 C   0  0
    3.9073    5.0138    0.0000 C   0  0
    3.9021    3.5138    0.0000 C   0  0
    2.6004    2.7683    0.0000 C   0  0
   -1.2135    0.3943    0.0000 C   0  0
   -2.7115    0.3949    0.0000 C   0  0
   -3.1750   -1.0317    0.0000 C   0  0
   -1.9615   -1.9133    0.0000 Se  0  0
   -0.7500   -1.0323    0.0000 C   0  0
    1.0423   -3.6127    0.0000 O   0  0
  1  2  1  0
  2  3  1  0
  3  4  2  0
  4  5  1  0
  5  6  2  0
  6  7  1  0
  7  8  2  0
  8  9  1  0
  9 10  1  0
 10 11  1  0
 11 12  2  0
 12 13  1  0
 13 14  2  0
 14 15  1  0
 15 16  2  0
 16 11  1  0
  9 17  1  0
 17 18  1  0
 18 19  2  0
 19 20  1  0
 20 21  1  0
 21  7  1  0
 21 17  2  0
  6 22  1  0
 22  3  1  0
M  END
> <Smiles>
OCc1ccc(-c2nn(Cc3ccccc3)c3cc[se]c23)o1

> <ID>
CHEMBL1098936

> <standard_value>
27542.29

> <IC50_uM>
27.54229

> <Activity>
No

> <pIC50>
4.559999953

> <BCI>
0

$$$$

  SciTegic03012415362D

 36 41  0  0  0  0            999 V2000
    0.4429  -14.3270    0.0000 O   0  0
    1.7636  -13.6160    0.0000 C   0  0
    3.0402  -14.4051    0.0000 N   0  0
    2.9961  -15.9052    0.0000 C   0  0
    4.2709  -16.6958    0.0000 C   0  0
    4.2238  -18.1950    0.0000 C   0  0
    2.9018  -18.9038    0.0000 C   0  0
    1.6270  -18.1134    0.0000 C   0  0
    1.6741  -16.6141    0.0000 C   0  0
    1.8077  -12.1158    0.0000 N   0  0
    0.5311  -11.3267    0.0000 S   0  0
    0.4863  -12.8260    0.0000 O   0  0
   -0.7897  -12.0378    0.0000 O   0  0
    0.5752   -9.8265    0.0000 C   0  0
   -0.7012   -9.0386    0.0000 C   0  0
   -0.6571   -7.5393    0.0000 C   0  0
    0.6594   -6.8309    0.0000 C   0  0
    0.8163   -5.3384    0.0000 N   0  0
   -0.2984   -4.3347    0.0000 N   0  0
    0.3114   -2.9665    0.0000 C   0  0
    1.8032   -3.1233    0.0000 C   0  0
    2.1153   -4.5884    0.0000 C   0  0
    3.4865   -5.1985    0.0000 C   0  0
    4.8163   -4.5434    0.0000 C   0  0
    5.8492   -5.6311    0.0000 C   0  0
    5.1339   -6.9496    0.0000 C   0  0
    3.6589   -6.6767    0.0000 S   0  0
    2.4133   -1.7530    0.0000 C   0  0
    1.2990   -0.7500    0.0000 C   0  0
    1.2990    0.7500    0.0000 C   0  0
    0.0000    1.5000    0.0000 C   0  0
   -1.2990    0.7500    0.0000 C   0  0
   -1.2990   -0.7500    0.0000 C   0  0
    0.0000   -1.5000    0.0000 C   0  0
    1.9398   -7.6157    0.0000 C   0  0
    1.8957   -9.1150    0.0000 C   0  0
  1  2  2  0
  2  3  1  0
  3  4  1  0
  4  5  1  0
  5  6  1  0
  6  7  1  0
  7  8  1  0
  8  9  1  0
  9  4  1  0
  2 10  1  0
 10 11  1  0
 11 12  2  0
 11 13  2  0
 11 14  1  0
 14 15  2  0
 15 16  1  0
 16 17  2  0
 17 18  1  0
 18 19  1  0
 19 20  2  0
 20 21  1  0
 21 22  2  0
 22 18  1  0
 22 23  1  0
 23 24  2  0
 24 25  1  0
 25 26  2  0
 26 27  1  0
 27 23  1  0
 21 28  1  0
 28 29  1  0
 29 30  2  0
 30 31  1  0
 31 32  2  0
 32 33  1  0
 33 34  2  0
 34 29  1  0
 34 20  1  0
 17 35  1  0
 35 36  2  0
 36 14  1  0
M  END
> <Smiles>
O=C(NC1CCCCC1)NS(=O)(=O)c1ccc(-n2nc3c(c2-c2cccs2)Cc2ccccc2-3)cc1

> <ID>
CHEMBL2263480

> <standard_value>
27600

> <IC50_uM>
27.6

> <Activity>
No

> <pIC50>
4.559090918

> <BCI>
0

$$$$

  SciTegic03012415362D

 40 46  0  0  0  0            999 V2000
   14.8760  -10.4617    0.0000 O   0  0
   13.5540   -9.7529    0.0000 C   0  0
   13.5069   -8.2537    0.0000 C   0  0
   12.1849   -7.5448    0.0000 S   0  0
   10.9100   -8.3353    0.0000 C   0  0
    9.5887   -7.6234    0.0000 N   0  0
    9.5437   -6.1233    0.0000 S   0  0
   10.8198   -5.3350    0.0000 O   0  0
   10.8645   -6.8341    0.0000 O   0  0
    8.2224   -5.4114    0.0000 C   0  0
    8.1783   -3.9120    0.0000 C   0  0
    6.8578   -3.2005    0.0000 C   0  0
    5.5861   -3.9865    0.0000 C   0  0
    4.2151   -3.3761    0.0000 N   0  0
    3.9032   -1.9089    0.0000 N   0  0
    2.4133   -1.7530    0.0000 C   0  0
    1.2990   -0.7500    0.0000 C   0  0
    1.2990    0.7500    0.0000 C   0  0
    0.0000    1.5000    0.0000 C   0  0
   -1.2990    0.7500    0.0000 C   0  0
   -1.2990   -0.7500    0.0000 C   0  0
    0.0000   -1.5000    0.0000 C   0  0
    0.3114   -2.9665    0.0000 C   0  0
    1.8032   -3.1233    0.0000 C   0  0  3  0  0  0
    2.9160   -4.1261    0.0000 C   0  0  3  0  0  0
    2.7588   -5.6186    0.0000 C   0  0
    1.5265   -6.4428    0.0000 C   0  0
    1.9521   -7.8811    0.0000 C   0  0
    3.4516   -7.9208    0.0000 C   0  0
    3.9527   -6.5070    0.0000 S   0  0
    5.6255   -5.4877    0.0000 C   0  0
    6.9460   -6.1992    0.0000 C   0  0
   10.9572   -9.8346    0.0000 N   0  0
    9.6818  -10.6255    0.0000 C   0  0
    8.3586   -9.9188    0.0000 C   0  0
    7.0850  -10.7113    0.0000 C   0  0
    7.1346  -12.2105    0.0000 C   0  0
    8.4577  -12.9172    0.0000 C   0  0
    9.7312  -12.1247    0.0000 C   0  0
   12.2792  -10.5434    0.0000 C   0  0
  1  2  2  0
  2  3  1  0
  3  4  1  0
  4  5  1  0
  5  6  2  0
  6  7  1  0
  7  8  2  0
  7  9  2  0
  7 10  1  0
 10 11  2  0
 11 12  1  0
 12 13  2  0
 13 14  1  0
 14 15  1  0
 15 16  2  0
 16 17  1  0
 17 18  2  0
 18 19  1  0
 19 20  2  0
 20 21  1  0
 21 22  2  0
 22 17  1  0
 22 23  1  0
 24 23  1  4
 24 16  1  0
 24 25  1  0
 25 14  1  0
 25 26  1  4
 26 27  2  0
 27 28  1  0
 28 29  2  0
 29 30  1  0
 30 26  1  0
 13 31  1  0
 31 32  2  0
 32 10  1  0
  5 33  1  0
 33 34  1  0
 34 35  2  0
 35 36  1  0
 36 37  2  0
 37 38  1  0
 38 39  2  0
 39 34  1  0
 33 40  1  0
 40  2  1  0
M  END
> <Smiles>
O=C1CS/C(=N\S(=O)(=O)c2ccc(N3N=C4c5ccccc5CC4C3c3cccs3)cc2)N(c2ccccc2)C1

> <ID>
CHEMBL2263489

> <standard_value>
27800

> <IC50_uM>
27.8

> <Activity>
No

> <pIC50>
4.555955204

> <BCI>
0

$$$$

  SciTegic03012415362D

 26 27  0  0  0  0            999 V2000
   10.3996   -1.4837    0.0000 C   0  0
    9.0990   -0.7364    0.0000 C   0  0
    7.8003   -1.4887    0.0000 O   0  0
    6.4990   -0.7409    0.0000 C   0  0
    6.4964    0.7591    0.0000 O   0  0
    5.2003   -1.4932    0.0000 C   0  0
    3.8990   -0.7455    0.0000 N   0  0
    2.6003   -1.4977    0.0000 C   0  0
    2.6030   -2.9977    0.0000 O   0  0
    1.2990   -0.7500    0.0000 C   0  0
    1.2990    0.7500    0.0000 C   0  0
    0.0000    1.5000    0.0000 C   0  0
   -1.2990    0.7500    0.0000 C   0  0
   -1.2990   -0.7500    0.0000 C   0  0
    0.0000   -1.5000    0.0000 C   0  0
   -0.0031   -3.0008    0.0000 N   0  0
   -1.3039   -3.7494    0.0000 C   0  0
   -1.3092   -5.2494    0.0000 C   0  0
   -2.6108   -5.9949    0.0000 C   0  0
   -3.9072   -5.2404    0.0000 N   0  0
   -3.9020   -3.7404    0.0000 C   0  0
   -5.1992   -2.9856    0.0000 C   0  0
   -6.5013   -3.7302    0.0000 F   0  0
   -5.1935   -1.4856    0.0000 F   0  0
   -6.4953   -2.2305    0.0000 F   0  0
   -2.6004   -2.9949    0.0000 C   0  0
  1  2  1  0
  2  3  1  0
  3  4  1  0
  4  5  2  0
  4  6  1  0
  6  7  1  0
  7  8  1  0
  8  9  2  0
  8 10  1  0
 10 11  2  0
 11 12  1  0
 12 13  2  0
 13 14  1  0
 14 15  2  0
 15 10  1  0
 15 16  1  0
 16 17  1  0
 17 18  2  0
 18 19  1  0
 19 20  2  0
 20 21  1  0
 21 22  1  0
 22 23  1  0
 22 24  1  0
 22 25  1  0
 21 26  2  0
 26 17  1  0
M  END
> <Smiles>
CCOC(=O)CNC(=O)c1ccccc1Nc1ccnc(C(F)(F)F)c1

> <ID>
CHEMBL365644

> <standard_value>
28000

> <IC50_uM>
28

> <Activity>
No

> <pIC50>
4.552841969

> <BCI>
0

$$$$

  SciTegic03012415362D

 39 40  0  0  1  0            999 V2000
   26.2659  -26.3444    0.0000 C   0  0
   25.3818  -25.1327    0.0000 C   0  0
   23.8894  -25.2916    0.0000 C   0  0
   23.0048  -24.0792    0.0000 C   0  0
   21.5124  -24.2381    0.0000 C   0  0
   20.6278  -23.0257    0.0000 C   0  0
   19.1354  -23.1846    0.0000 C   0  0
   18.2508  -21.9722    0.0000 C   0  0
   16.7584  -22.1312    0.0000 C   0  0
   15.8738  -20.9187    0.0000 C   0  0
   14.3815  -21.0777    0.0000 C   0  0
   13.4969  -19.8653    0.0000 C   0  0
   12.0045  -20.0242    0.0000 C   0  0  1  0  0  0
   11.3967  -21.3955    0.0000 O   0  0
   11.1214  -18.8138    0.0000 C   0  0  1  0  0  0
    9.6214  -18.8137    0.0000 C   0  0
    9.1580  -17.3871    0.0000 C   0  0
   10.3716  -16.5273    0.0000 C   0  0  2  0  0  0
   10.3737  -15.0265    0.0000 C   0  0  2  0  0  0
   11.6740  -14.2788    0.0000 O   0  0
    9.0755  -14.2734    0.0000 C   0  0
    9.0776  -12.7726    0.0000 C   0  0
    7.7794  -12.0195    0.0000 C   0  0
    7.7815  -10.5187    0.0000 C   0  0
    6.4833   -9.7656    0.0000 C   0  0
    6.4855   -8.2648    0.0000 C   0  0
    5.1873   -7.5117    0.0000 C   0  0
    5.1894   -6.0109    0.0000 C   0  0
    3.8912   -5.2578    0.0000 C   0  0
    3.8933   -3.7570    0.0000 C   0  0
    2.5951   -3.0039    0.0000 C   0  0
    2.5973   -1.5031    0.0000 C   0  0
    1.2990   -0.7500    0.0000 C   0  0
    1.2990    0.7500    0.0000 C   0  0
    0.0000    1.5000    0.0000 N   0  0
   -1.2990    0.7500    0.0000 C   0  0
   -1.2990   -0.7500    0.0000 N   0  0
    0.0000   -1.5000    0.0000 C   0  0
   11.5850  -17.3873    0.0000 O   0  0
  1  2  1  0
  2  3  1  0
  3  4  1  0
  4  5  1  0
  5  6  1  0
  6  7  1  0
  7  8  1  0
  8  9  1  0
  9 10  1  0
 10 11  1  0
 11 12  1  0
 12 13  1  0
 13 14  1  1
 13 15  1  0
 15 16  1  1
 16 17  1  0
 18 17  1  6
 18 19  1  0
 19 20  1  1
 19 21  1  0
 21 22  1  0
 22 23  1  0
 23 24  1  0
 24 25  1  0
 25 26  1  0
 26 27  1  0
 27 28  1  0
 28 29  1  0
 29 30  1  0
 30 31  1  0
 31 32  1  0
 32 33  1  0
 33 34  2  0
 34 35  1  0
 35 36  2  0
 36 37  1  0
 37 38  2  0
 38 33  1  0
 18 39  1  0
 39 15  1  0
M  END
> <Smiles>
CCCCCCCCCCCC[C@@H](O)[C@H]1CC[C@H]([C@H](O)CCCCCCCCCCCCc2cncnc2)O1

> <ID>
CHEMBL251783

> <standard_value>
28000

> <IC50_uM>
28

> <Activity>
No

> <pIC50>
4.552841969

> <BCI>
0

$$$$

  SciTegic03012415362D

 32 36  0  0  0  0            999 V2000
    2.5951   -3.0031    0.0000 C   0  0
    2.5973   -1.5031    0.0000 O   0  0
    1.2990   -0.7500    0.0000 C   0  0
    1.2990    0.7500    0.0000 C   0  0
    0.0000    1.5000    0.0000 C   0  0
   -1.2990    0.7500    0.0000 C   0  0
   -1.2990   -0.7500    0.0000 C   0  0
    0.0000   -1.5000    0.0000 C   0  0
   -2.7248   -1.2135    0.0000 C   0  0
   -3.1904   -2.6376    0.0000 N   0  0
   -2.1895   -3.7548    0.0000 O   0  0
   -3.6065    0.0000    0.0000 C   0  0
   -2.7248    1.2135    0.0000 C   0  0
   -3.3339    2.5831    0.0000 C   0  0
   -2.4537    3.7988    0.0000 N   0  0
   -3.0656    5.1692    0.0000 C   0  0
   -2.1876    6.3855    0.0000 C   0  0
   -2.8019    7.7539    0.0000 C   0  0
   -4.2942    7.9062    0.0000 C   0  0
   -5.1722    6.6900    0.0000 C   0  0
   -6.6656    6.8392    0.0000 C   0  0
   -7.2822    8.2066    0.0000 C   0  0
   -7.5423    5.6211    0.0000 N   0  0
   -9.0348    5.7702    0.0000 O   0  0
   -4.5579    5.3215    0.0000 C   0  0
   -4.8257    2.7399    0.0000 N   0  0
   -5.7073    1.5263    0.0000 C   0  0
   -7.1991    1.6831    0.0000 C   0  0
   -8.0808    0.4696    0.0000 C   0  0
   -7.4707   -0.9007    0.0000 C   0  0
   -5.9789   -1.0575    0.0000 C   0  0
   -5.0972    0.1560    0.0000 C   0  0
  1  2  1  0
  2  3  1  0
  3  4  2  0
  4  5  1  0
  5  6  2  0
  6  7  1  0
  7  8  2  0
  8  3  1  0
  7  9  1  0
  9 10  2  0
 10 11  1  0
  9 12  1  0
 12 13  2  0
 13  6  1  0
 13 14  1  0
 14 15  1  0
 15 16  1  0
 16 17  2  0
 17 18  1  0
 18 19  2  0
 19 20  1  0
 20 21  1  0
 21 22  1  0
 21 23  2  0
 23 24  1  0
 20 25  2  0
 25 16  1  0
 14 26  2  0
 26 27  1  0
 27 28  2  0
 28 29  1  0
 29 30  2  0
 30 31  1  0
 31 32  2  0
 32 12  1  0
 32 27  1  0
M  END
> <Smiles>
COc1ccc2c(c1)/C(=N\O)c1c-2c(Nc2cccc(/C(C)=N/O)c2)nc2ccccc12

> <ID>
CHEMBL2047436

> <standard_value>
28180

> <IC50_uM>
28.18

> <Activity>
No

> <pIC50>
4.550059011

> <BCI>
0

$$$$

  SciTegic03012415362D

 28 30  0  0  0  0            999 V2000
    2.5909   -6.0056    0.0000 O   0  0
    3.8912   -5.2578    0.0000 C   0  0
    3.8933   -3.7570    0.0000 N   0  0
    2.5951   -3.0039    0.0000 C   0  0
    2.5973   -1.5031    0.0000 C   0  0
    1.2990   -0.7500    0.0000 C   0  0
    1.2990    0.7500    0.0000 C   0  0
    0.0000    1.5000    0.0000 C   0  0
   -1.2990    0.7500    0.0000 C   0  0
   -1.2990   -0.7500    0.0000 C   0  0
    0.0000   -1.5000    0.0000 N   0  0
    5.1894   -6.0109    0.0000 C   0  0
    6.4886   -5.2610    0.0000 C   0  0
    7.7876   -6.0110    0.0000 C   0  0
    9.0889   -5.2633    0.0000 N   0  0
   10.3876   -6.0156    0.0000 C   0  0
   11.6889   -5.2679    0.0000 C   0  0
   11.6890   -3.7678    0.0000 C   0  0
   12.9881   -3.0179    0.0000 C   0  0
   12.9882   -1.5179    0.0000 O   0  0
   14.2871   -3.7679    0.0000 C   0  0
   14.2870   -5.2679    0.0000 C   0  0
   12.9879   -6.0179    0.0000 C   0  0
   12.9879   -7.5179    0.0000 O   0  0
    7.7875   -7.5110    0.0000 C   0  0
    6.4885   -8.2610    0.0000 C   0  0
    5.1895   -7.5109    0.0000 C   0  0
    3.8904   -8.2609    0.0000 O   0  0
  1  2  2  0
  2  3  1  0
  3  4  1  0
  4  5  1  0
  5  6  1  0
  6  7  2  0
  7  8  1  0
  8  9  2  0
  9 10  1  0
 10 11  2  0
 11  6  1  0
  2 12  1  0
 12 13  2  0
 13 14  1  0
 14 15  1  0
 15 16  1  0
 16 17  1  0
 17 18  2  0
 18 19  1  0
 19 20  1  0
 19 21  2  0
 21 22  1  0
 22 23  2  0
 23 17  1  0
 23 24  1  0
 14 25  2  0
 25 26  1  0
 26 27  2  0
 27 12  1  0
 27 28  1  0
M  END
> <Smiles>
O=C(NCCc1ccccn1)c1cc(NCc2cc(O)ccc2O)ccc1O

> <ID>
CHEMBL137897

> <standard_value>
29000

> <IC50_uM>
29

> <Activity>
No

> <pIC50>
4.537602002

> <BCI>
0

$$$$

  SciTegic03012415362D

 19 20  0  0  0  0            999 V2000
    2.5983   -3.0004    0.0000 N   0  0
    2.5988   -1.5004    0.0000 S   0  0
    3.8983   -0.7512    0.0000 O   0  0
    3.8975   -2.2510    0.0000 O   0  0
    1.2990   -0.7500    0.0000 C   0  0
    1.2990    0.7500    0.0000 C   0  0
    0.0000    1.5000    0.0000 C   0  0
   -1.2990    0.7500    0.0000 C   0  0
   -2.6003    1.4977    0.0000 C   0  0
   -3.8990    0.7455    0.0000 C   0  0
   -5.2003    1.4932    0.0000 C   0  0
   -6.4994    0.7432    0.0000 C   0  0
   -7.7985    1.4932    0.0000 C   0  0
   -7.7985    2.9932    0.0000 C   0  0
   -9.0976    3.7432    0.0000 F   0  0
   -6.4995    3.7432    0.0000 C   0  0
   -5.2004    2.9933    0.0000 C   0  0
   -1.2990   -0.7500    0.0000 C   0  0
    0.0000   -1.5000    0.0000 C   0  0
  1  2  1  0
  2  3  2  0
  2  4  2  0
  2  5  1  0
  5  6  2  0
  6  7  1  0
  7  8  2  0
  8  9  1  0
  9 10  2  0
 10 11  1  0
 11 12  2  0
 12 13  1  0
 13 14  2  0
 14 15  1  0
 14 16  1  0
 16 17  2  0
 17 11  1  0
  8 18  1  0
 18 19  2  0
 19  5  1  0
M  END
> <Smiles>
NS(=O)(=O)c1ccc(/C=C/c2ccc(F)cc2)cc1

> <ID>
CHEMBL7218

> <standard_value>
29100

> <IC50_uM>
29.1

> <Activity>
No

> <pIC50>
4.536107011

> <BCI>
0

$$$$

  SciTegic03012415362D

 31 35  0  0  0  0            999 V2000
    3.8983   -0.7459    0.0000 C   0  0
    2.6003   -1.4977    0.0000 O   0  0
    1.2990   -0.7500    0.0000 C   0  0
    1.2990    0.7500    0.0000 C   0  0
    0.0000    1.5000    0.0000 C   0  0
    0.0000    3.0000    0.0000 C   0  0
   -1.2991    3.7500    0.0000 C   0  0
   -2.5981    3.0000    0.0000 N   0  0
   -3.8971    3.7500    0.0000 C   0  0
   -2.5981    1.5000    0.0000 C   0  0
   -3.8971    0.7500    0.0000 O   0  0
   -1.2990    0.7500    0.0000 C   0  0
   -1.2990   -0.7500    0.0000 C   0  0
    0.0000   -1.5000    0.0000 C   0  0
   -0.0031   -3.0008    0.0000 O   0  0
   -1.3032   -3.7490    0.0000 C   0  0
   -0.9876    5.2165    0.0000 C   0  0
   -1.8692    6.4288    0.0000 C   0  0
   -1.2591    7.7991    0.0000 C   0  0
    0.2327    7.9559    0.0000 C   0  0
    1.1144    6.7424    0.0000 C   0  0
    0.5042    5.3733    0.0000 C   0  0
    1.1143    4.0030    0.0000 C   0  0
    2.5791    3.6882    0.0000 C   0  0
    3.5866    4.8006    0.0000 C   0  0
    5.0539    4.4852    0.0000 C   0  0
    6.0613    5.5976    0.0000 C   0  0
    7.5279    5.2824    0.0000 Br  0  0
    0.5446    9.4223    0.0000 O   0  0
   -0.7544   10.1723    0.0000 C   0  0
   -1.8691    9.1686    0.0000 O   0  0
  1  2  1  0
  2  3  1  0
  3  4  2  0
  4  5  1  0
  5  6  1  0
  6  7  2  0
  7  8  1  0
  8  9  1  0
  8 10  1  0
 10 11  2  0
 10 12  1  0
 12  5  2  0
 12 13  1  0
 13 14  2  0
 14  3  1  0
 14 15  1  0
 15 16  1  0
  7 17  1  0
 17 18  2  0
 18 19  1  0
 19 20  2  0
 20 21  1  0
 21 22  2  0
 22 17  1  0
 22 23  1  0
 23  6  1  0
 23 24  2  0
 24 25  1  0
 25 26  1  0
 26 27  1  0
 27 28  1  0
 20 29  1  0
 29 30  1  0
 30 31  1  0
 31 19  1  0
M  END
> <Smiles>
COc1cc2c3c(n(C)c(=O)c2cc1OC)-c1cc2c(cc1/C3=C\CCCBr)OCO2

> <ID>
CHEMBL320263

> <standard_value>
30000

> <IC50_uM>
30

> <Activity>
No

> <pIC50>
4.522878745

> <BCI>
0

$$$$

  SciTegic03012415362D

 26 29  0  0  0  0            999 V2000
    1.2948   -3.7516    0.0000 O   0  0
    2.5951   -3.0039    0.0000 C   0  0
    2.5973   -1.5031    0.0000 N   0  0
    1.2990   -0.7500    0.0000 N   0  0
    1.2990    0.7500    0.0000 C   0  0
    2.5987    1.5004    0.0000 C   0  0
    3.9511    0.8815    0.0000 C   0  0
    4.9530    1.9978    0.0000 C   0  0
    4.2010    3.2957    0.0000 C   0  0
    2.7342    2.9815    0.0000 S   0  0
    0.0000    1.5000    0.0000 N   0  0
   -1.2990    0.7500    0.0000 C   0  0
   -2.5981    1.5000    0.0000 C   0  0
   -3.8971    0.7500    0.0000 C   0  0
   -3.8971   -0.7500    0.0000 C   0  0
   -5.1961   -1.5000    0.0000 I   0  0
   -2.5981   -1.5000    0.0000 C   0  0
   -1.2990   -0.7500    0.0000 C   0  0
    0.0000   -1.5000    0.0000 C   0  0
    0.0000   -3.0000    0.0000 O   0  0
    3.8933   -3.7570    0.0000 C   0  0
    3.8934   -5.2570    0.0000 C   0  0
    5.1924   -6.0070    0.0000 C   0  0
    6.4915   -5.2571    0.0000 C   0  0
    6.4915   -3.7571    0.0000 C   0  0
    5.1925   -3.0070    0.0000 C   0  0
  1  2  2  0
  2  3  1  0
  3  4  1  0
  4  5  1  0
  5  6  1  0
  6  7  2  0
  7  8  1  0
  8  9  2  0
  9 10  1  0
 10  6  1  0
  5 11  2  0
 11 12  1  0
 12 13  2  0
 13 14  1  0
 14 15  2  0
 15 16  1  0
 15 17  1  0
 17 18  2  0
 18 12  1  0
 18 19  1  0
 19  4  1  0
 19 20  2  0
  2 21  1  0
 21 22  2  0
 22 23  1  0
 23 24  2  0
 24 25  1  0
 25 26  2  0
 26 21  1  0
M  END
> <Smiles>
O=C(Nn1c(-c2cccs2)nc2ccc(I)cc2c1=O)c1ccccc1

> <ID>
CHEMBL561298

> <standard_value>
30000

> <IC50_uM>
30

> <Activity>
No

> <pIC50>
4.522878745

> <BCI>
0

$$$$

  SciTegic03012415362D

 17 19  0  0  0  0            999 V2000
    1.6317   -2.2458    0.0000 O   0  0
    0.7500   -1.0323    0.0000 C   0  0
    1.2135    0.3943    0.0000 C   0  0
    2.6375    0.8603    0.0000 C   0  0
    2.9474    2.3287    0.0000 C   0  0
    4.3724    2.7973    0.0000 C   0  0
    4.6791    4.2656    0.0000 C   0  0
    3.5609    5.2654    0.0000 C   0  0
    3.8677    6.7337    0.0000 F   0  0
    2.1359    4.7969    0.0000 C   0  0
    1.8292    3.3286    0.0000 C   0  0
    0.0000    1.2760    0.0000 S   0  0
   -1.2135    0.3943    0.0000 C   0  0
   -2.7115    0.3949    0.0000 N   0  0
   -3.1750   -1.0317    0.0000 C   0  0
   -1.9615   -1.9133    0.0000 N   0  0
   -0.7500   -1.0323    0.0000 N   0  0
  1  2  2  0
  2  3  1  0
  3  4  2  0
  4  5  1  0
  5  6  2  0
  6  7  1  0
  7  8  2  0
  8  9  1  0
  8 10  1  0
 10 11  2  0
 11  5  1  0
  3 12  1  0
 12 13  1  0
 13 14  2  0
 14 15  1  0
 15 16  2  0
 16 17  1  0
 17  2  1  0
 17 13  1  0
M  END
> <Smiles>
O=c1/c(=C/c2ccc(F)cc2)sc2ncnn12

> <ID>
CHEMBL277750

> <standard_value>
30199.52

> <IC50_uM>
30.19952

> <Activity>
No

> <pIC50>
4.51999996

> <BCI>
0

$$$$

  SciTegic03012415362D

 22 22  0  0  0  0            999 V2000
    7.7989   -1.4895    0.0000 C   0  0
    6.4990   -0.7409    0.0000 C   0  0
    5.2003   -1.4932    0.0000 N   0  0
    3.8990   -0.7455    0.0000 C   0  0
    3.8964    0.7545    0.0000 O   0  0
    2.6003   -1.4977    0.0000 N   0  0
    1.2990   -0.7500    0.0000 C   0  0
    1.2990    0.7500    0.0000 C   0  0
    0.0000    1.5000    0.0000 C   0  0
    0.0000    3.0000    0.0000 Cl  0  0
   -1.2990    0.7500    0.0000 C   0  0
   -1.2990   -0.7500    0.0000 C   0  0
    0.0000   -1.5000    0.0000 C   0  0
    0.0000   -3.0000    0.0000 Cl  0  0
    6.4978    0.7599    0.0000 C   0  0
    7.7958    1.5117    0.0000 F   0  0
    5.1979    1.5084    0.0000 F   0  0
    6.4959    2.2599    0.0000 F   0  0
    6.5029   -2.2709    0.0000 C   0  0
    7.8033   -3.0184    0.0000 F   0  0
    6.5060   -3.7709    0.0000 F   0  0
    5.2055   -3.0238    0.0000 F   0  0
  1  2  1  0
  2  3  1  0
  3  4  1  0
  4  5  2  0
  4  6  1  0
  6  7  1  0
  7  8  2  0
  8  9  1  0
  9 10  1  0
  9 11  2  0
 11 12  1  0
 12 13  2  0
 13  7  1  0
 13 14  1  0
  2 15  1  0
 15 16  1  0
 15 17  1  0
 15 18  1  0
  2 19  1  0
 19 20  1  0
 19 21  1  0
 19 22  1  0
M  END
> <Smiles>
CC(NC(=O)Nc1cc(Cl)ccc1Cl)(C(F)(F)F)C(F)(F)F

> <ID>
CHEMBL1290239

> <standard_value>
30199.52

> <IC50_uM>
30.19952

> <Activity>
No

> <pIC50>
4.51999996

> <BCI>
0

$$$$

  SciTegic03012415362D

 39 42  0  0  1  0            999 V2000
   11.4853    5.1532    0.0000 C   0  0
   12.2301    3.8511    0.0000 C   0  0
   13.7301    3.8456    0.0000 O   0  0
   11.4741    2.5546    0.0000 N   0  0
    9.9733    2.5602    0.0000 C   0  0
    9.2308    3.8635    0.0000 C   0  0
    7.7308    3.8721    0.0000 C   0  0
    6.9733    2.5774    0.0000 C   0  0
    5.4724    2.5830    0.0000 C   0  0
    4.7164    1.2865    0.0000 C   0  0
    3.2156    1.2920    0.0000 C   0  0
    2.4596   -0.0045    0.0000 C   0  0
    0.9600    0.0000    0.0000 C   0  0  2  0  0  0
    0.2300   -1.1000    0.0000 C   0  0
   -1.9100   -1.1000    0.0000 C   0  0  2  0  0  0
   -1.9100    0.3400    0.0000 C   0  0
   -3.0900    1.2400    0.0000 C   0  0  2  0  0  0
   -4.3000    0.5300    0.0000 O   0  0
   -5.4800    1.2400    0.0000 C   0  0  2  0  0  0
   -5.4800    2.6200    0.0000 C   0  0
   -4.3000    3.3200    0.0000 C   0  0
   -3.0900    2.6200    0.0000 C   0  0
   -1.8094    1.8389    0.0000 C   0  0
   -3.1246    4.1196    0.0000 C   0  0
   -6.9900    0.4000    0.0000 C   0  0
   -6.9900   -0.9700    0.0000 C   0  0
   -8.3222   -1.6594    0.0000 O   0  0
   -5.9300   -1.7200    0.0000 O   0  0
   -5.9300   -3.1200    0.0000 C   0  0  1  0  0  0
   -7.2813   -3.7772    0.0000 C   0  0
   -8.5241   -2.9374    0.0000 O   0  0
   -4.7200   -3.9900    0.0000 C   0  0
   -3.3200   -3.3500    0.0000 C   0  0
   -2.0580   -4.1607    0.0000 O   0  0
   -3.3200   -1.9500    0.0000 O   0  0
    0.0600    1.2200    0.0000 O   0  0
    7.7159    1.2741    0.0000 C   0  0
    9.2159    1.2655    0.0000 C   0  0
    9.9584   -0.0379    0.0000 O   0  0
  1  2  1  0
  2  3  2  0
  2  4  1  0
  4  5  1  0
  5  6  2  0
  6  7  1  0
  7  8  2  0
  8  9  1  0
  9 10  1  0
 10 11  1  0
 11 12  1  0
 13 12  1  6
 13 14  1  0
 15 14  1  1
 15 16  1  0
 17 16  1  6
 17 18  1  0
 19 18  1  1
 19 20  1  0
 20 21  1  0
 21 22  1  0
 22 17  1  0
 22 23  1  0
 22 24  1  0
 19 25  1  0
 25 26  1  0
 26 27  2  0
 26 28  1  0
 28 29  1  0
 29 30  1  6
 30 31  1  0
 29 32  1  0
 32 33  1  0
 33 34  2  0
 33 35  1  0
 35 15  1  0
 17 36  1  0
 36 13  1  0
  8 37  1  0
 37 38  2  0
 38  5  1  0
 38 39  1  0
M  END
> <Smiles>
CC(=O)Nc1ccc(CCCC[C@@H]2C[C@@H]3C[C@@]4(O[C@H](CCC4(C)C)CC(=O)O[C@@H](CO)CC(=O)O3)O2)cc1O

> <ID>
CHEMBL2381161

> <standard_value>
30199.52

> <IC50_uM>
30.19952

> <Activity>
No

> <pIC50>
4.51999996

> <BCI>
0

$$$$

  SciTegic03012415362D

 24 26  0  0  0  0            999 V2000
    1.2443   -5.8182    0.0000 O   0  0
   -0.2234   -5.5086    0.0000 C   0  0
   -1.2256   -6.6258    0.0000 N   0  0
   -0.7600   -8.0526    0.0000 C   0  0
    0.7083   -8.3597    0.0000 C   0  0
    1.1765   -9.7848    0.0000 C   0  0
    0.1764  -10.9028    0.0000 C   0  0
   -1.2918  -10.5957    0.0000 C   0  0
   -1.7600   -9.1707    0.0000 C   0  0
   -3.2297   -8.8665    0.0000 O   0  0
   -4.2287   -9.9866    0.0000 C   0  0
   -5.6975   -9.6826    0.0000 F   0  0
   -3.7579  -11.4108    0.0000 F   0  0
   -5.2265  -11.1065    0.0000 F   0  0
   -0.6890   -4.0818    0.0000 N   0  0
    0.3114   -2.9665    0.0000 C   0  0
    1.8032   -3.1233    0.0000 N   0  0
    2.4133   -1.7530    0.0000 N   0  0
    1.2990   -0.7500    0.0000 C   0  0
    1.2990    0.7500    0.0000 C   0  0
    0.0000    1.5000    0.0000 C   0  0
   -1.2990    0.7500    0.0000 C   0  0
   -1.2990   -0.7500    0.0000 C   0  0
    0.0000   -1.5000    0.0000 C   0  0
  1  2  2  0
  2  3  1  0
  3  4  1  0
  4  5  2  0
  5  6  1  0
  6  7  2  0
  7  8  1  0
  8  9  2  0
  9  4  1  0
  9 10  1  0
 10 11  1  0
 11 12  1  0
 11 13  1  0
 11 14  1  0
  2 15  1  0
 15 16  1  0
 16 17  2  0
 17 18  1  0
 18 19  1  0
 19 20  2  0
 20 21  1  0
 21 22  2  0
 22 23  1  0
 23 24  2  0
 24 16  1  0
 24 19  1  0
M  END
> <Smiles>
O=C(Nc1ccccc1OC(F)(F)F)Nc1n[nH]c2ccccc12

> <ID>
CHEMBL463037

> <standard_value>
30500

> <IC50_uM>
30.5

> <Activity>
No

> <pIC50>
4.515700161

> <BCI>
0

$$$$

  SciTegic03012415362D

 18 19  0  0  0  0            999 V2000
    2.5401   -9.6216    0.0000 C   0  0
    1.7928   -8.3210    0.0000 C   0  0
    2.5451   -7.0223    0.0000 O   0  0
    1.7974   -5.7210    0.0000 C   0  0
    0.2974   -5.7184    0.0000 O   0  0
    2.5497   -4.4224    0.0000 N   0  0
    1.8032   -3.1233    0.0000 C   0  0
    2.4133   -1.7530    0.0000 N   0  0
    1.2990   -0.7500    0.0000 C   0  0
    1.2990    0.7500    0.0000 C   0  0
    0.0000    1.5000    0.0000 C   0  0
   -1.2990    0.7500    0.0000 C   0  0
   -2.6003    1.4977    0.0000 S   0  0
   -3.8990    0.7455    0.0000 C   0  0
   -5.1996    1.4928    0.0000 C   0  0
   -1.2990   -0.7500    0.0000 C   0  0
    0.0000   -1.5000    0.0000 C   0  0
    0.3114   -2.9665    0.0000 S   0  0
  1  2  1  0
  2  3  1  0
  3  4  1  0
  4  5  2  0
  4  6  1  0
  6  7  1  0
  7  8  2  0
  8  9  1  0
  9 10  2  0
 10 11  1  0
 11 12  2  0
 12 13  1  0
 13 14  1  0
 14 15  1  0
 12 16  1  0
 16 17  2  0
 17  9  1  0
 17 18  1  0
 18  7  1  0
M  END
> <Smiles>
CCOC(=O)Nc1nc2ccc(SCC)cc2s1

> <ID>
CHEMBL4281243

> <standard_value>
31200

> <IC50_uM>
31.2

> <Activity>
No

> <pIC50>
4.505845406

> <BCI>
0

$$$$

  SciTegic03012415362D

 21 23  0  0  0  0            999 V2000
   -0.6923   -4.0811    0.0000 N   0  0
    0.3114   -2.9665    0.0000 C   0  0
    1.8032   -3.1233    0.0000 N   0  0
    2.4133   -1.7530    0.0000 N   0  0
    3.8794   -1.4442    0.0000 C   0  0
    4.3452   -0.0183    0.0000 O   0  0
    4.8823   -2.5608    0.0000 N   0  0
    6.3509   -2.2515    0.0000 C   0  0
    7.3549   -3.3660    0.0000 C   0  0
    6.8916   -4.7927    0.0000 F   0  0
    8.8220   -3.0539    0.0000 C   0  0
    9.2853   -1.6272    0.0000 C   0  0
    8.2815   -0.5127    0.0000 C   0  0
    6.8143   -0.8248    0.0000 C   0  0
    5.8104    0.2898    0.0000 F   0  0
    1.2990   -0.7500    0.0000 C   0  0
    1.2990    0.7500    0.0000 C   0  0
    0.0000    1.5000    0.0000 C   0  0
   -1.2990    0.7500    0.0000 C   0  0
   -1.2990   -0.7500    0.0000 C   0  0
    0.0000   -1.5000    0.0000 C   0  0
  1  2  1  0
  2  3  2  0
  3  4  1  0
  4  5  1  0
  5  6  2  0
  5  7  1  0
  7  8  1  0
  8  9  2  0
  9 10  1  0
  9 11  1  0
 11 12  2  0
 12 13  1  0
 13 14  2  0
 14  8  1  0
 14 15  1  0
  4 16  1  0
 16 17  2  0
 17 18  1  0
 18 19  2  0
 19 20  1  0
 20 21  2  0
 21  2  1  0
 21 16  1  0
M  END
> <Smiles>
Nc1nn(C(=O)Nc2c(F)cccc2F)c2ccccc12

> <ID>
CHEMBL450408

> <standard_value>
31400

> <IC50_uM>
31.4

> <Activity>
No

> <pIC50>
4.503070352

> <BCI>
0

$$$$

  SciTegic03012415362D

 23 26  0  0  1  0            999 V2000
    3.8983   -0.7459    0.0000 C   0  0
    2.6003   -1.4977    0.0000 O   0  0
    1.2990   -0.7500    0.0000 C   0  0
    1.2990    0.7500    0.0000 C   0  0
    0.0000    1.5000    0.0000 C   0  0
   -1.2990    0.7500    0.0000 C   0  0
   -1.2990   -0.7500    0.0000 C   0  0
    0.0000   -1.5000    0.0000 C   0  0
    0.0000   -3.0000    0.0000 O   0  0
   -2.5981    1.5000    0.0000 C   0  0
   -2.5981    3.0000    0.0000 C   0  0
   -1.2991    3.7500    0.0000 C   0  0  2  0  0  0
    0.0000    3.0000    0.0000 C   0  0  2  0  0  0
    1.2990    3.7500    0.0000 C   0  0
    1.2990    5.2500    0.0000 C   0  0
    0.0000    6.0000    0.0000 C   0  0  1  0  0  0
    0.8141    6.5807    0.0000 C   0  0
   -1.2991    5.2500    0.0000 C   0  0  1  0  0  0
   -2.3947    6.2665    0.0000 C   0  0
   -1.7759    7.6329    0.0000 C   0  0
   -0.2851    7.4666    0.0000 C   0  0
    0.6872    7.2329    0.0000 F   0  0
   -0.7522    8.8921    0.0000 F   0  0
  1  2  1  0
  2  3  1  0
  3  4  2  0
  4  5  1  0
  5  6  2  0
  6  7  1  0
  7  8  2  0
  8  3  1  0
  8  9  1  0
  6 10  1  0
 10 11  1  0
 12 11  1  1
 12 13  1  0
 13  5  1  0
 13 14  1  6
 14 15  1  0
 15 16  1  0
 16 17  1  6
 16 18  1  0
 18 12  1  0
 18 19  1  6
 19 20  1  0
 20 21  1  0
 21 16  1  0
 21 22  1  0
 21 23  1  0
M  END
> <Smiles>
COc1cc2c(cc1O)CC[C@@H]1[C@@H]2CC[C@@]2(C)[C@H]1CCC2(F)F

> <ID>
CHEMBL1627744

> <standard_value>
31600

> <IC50_uM>
31.6

> <Activity>
No

> <pIC50>
4.500312917

> <BCI>
0

$$$$

  SciTegic03012415362D

 28 29  0  0  1  0            999 V2000
    5.3192   -0.2597    0.0000 C   0  0
    4.1500    0.6800    0.0000 C   0  0  1  0  0  0
    2.5200    0.3600    0.0000 C   0  0
    2.3100   -1.1700    0.0000 C   0  0
    1.3300   -1.6300    0.0000 C   0  0
    0.1900   -1.1200    0.0000 C   0  0
    0.0000    0.3600    0.0000 C   0  0
   -1.5600    0.8100    0.0000 C   0  0  2  0  0  0
   -3.0100    0.3400    0.0000 C   0  0
   -3.9100    1.5700    0.0000 C   0  0  2  0  0  0
   -5.4100    1.5671    0.0000 O   0  0
   -3.0100    2.8100    0.0000 C   0  0
   -1.5600    2.3300    0.0000 C   0  0  1  0  0  0
    0.0000    2.8600    0.0000 C   0  0  2  0  0  0
    0.7313    1.5501    0.0000 O   0  0
    1.8958    2.4969    0.0000 C   0  0
    1.6578    3.9779    0.0000 O   0  0
    3.3964    2.4746    0.0000 C   0  0
    4.1669    3.7625    0.0000 C   0  0
    5.6676    3.7402    0.0000 C   0  0
    6.4380    5.0282    0.0000 C   0  0
    7.9379    5.0059    0.0000 O   0  0
    5.7078    6.3385    0.0000 O   0  0
    0.3300    4.3600    0.0000 C   0  0
    2.3100    4.3400    0.0000 C   0  0
    2.6310    5.8738    0.0000 C   0  0
    2.2348    4.4271    0.0000 O   0  0
    4.1100    2.4200    0.0000 O   0  0
  2  1  1  1
  2  3  1  0
  3  4  1  0
  4  5  1  0
  5  6  1  0
  6  7  2  0
  8  7  1  6
  8  9  1  0
  9 10  1  0
 10 11  1  6
 10 12  1  0
 13 12  1  1
 13  8  1  0
 13 14  1  0
 14 15  1  1
 15 16  1  0
 16 17  2  0
 16 18  1  0
 18 19  1  0
 19 20  1  0
 20 21  1  0
 21 22  2  0
 21 23  1  0
 14 24  1  0
 24 25  2  0
 25 26  1  0
 26 27  2  0
 26 28  1  0
 28  2  1  0
M  END
> <Smiles>
C[C@H]1CCC/C=C/[C@@H]2C[C@H](O)C[C@H]2[C@H](OC(=O)CCCC(=O)O)/C=C/C(=O)O1

> <ID>
CHEMBL209354

> <standard_value>
31620

> <IC50_uM>
31.62

> <Activity>
No

> <pIC50>
4.500038134

> <BCI>
0

$$$$

  SciTegic03012415362D

 31 36  0  0  0  0            999 V2000
    3.8983   -0.7459    0.0000 C   0  0
    2.6003   -1.4977    0.0000 O   0  0
    1.2990   -0.7500    0.0000 C   0  0
    1.2990    0.7500    0.0000 C   0  0
    0.0000    1.5000    0.0000 C   0  0
   -1.2990    0.7500    0.0000 C   0  0
   -1.2990   -0.7500    0.0000 C   0  0
    0.0000   -1.5000    0.0000 C   0  0
   -0.0031   -3.0008    0.0000 O   0  0
    1.2939   -3.7543    0.0000 C   0  0
   -2.5981    1.5000    0.0000 C   0  0  3  0  0  0
   -2.9583    0.0431    0.0000 C   0  0
   -1.8773   -0.9968    0.0000 C   0  0
   -2.2373   -2.4529    0.0000 C   0  0
   -1.1536   -3.4912    0.0000 O   0  0
   -1.5097   -4.9483    0.0000 C   0  0
   -3.6784   -2.8692    0.0000 C   0  0
   -4.0417   -4.3254    0.0000 O   0  0
   -5.4833   -4.7396    0.0000 C   0  0
   -4.7595   -1.8293    0.0000 C   0  0
   -6.2022   -2.2428    0.0000 O   0  0
   -7.2817   -1.2014    0.0000 C   0  0
   -4.3994   -0.3731    0.0000 C   0  0
   -4.0744    1.4427    0.0000 O   0  0
   -4.0962    2.9425    0.0000 C   0  0
   -2.5981    3.0000    0.0000 C   0  0  3  0  0  0
   -2.6848    4.4463    0.0000 C   0  0  3  0  0  0
   -2.8088    2.5791    0.0000 C   0  0
   -1.4911    1.8624    0.0000 O   0  0
    0.0000    3.0000    0.0000 C   0  0  3  0  0  0
   -1.2991    3.7500    0.0000 C   0  0  3  0  0  0
  1  2  1  0
  2  3  1  0
  3  4  2  0
  4  5  1  0
  5  6  2  0
  6  7  1  0
  7  8  2  0
  8  3  1  0
  8  9  1  0
  9 10  1  0
  6 11  1  0
 11 12  1  4
 12 13  2  0
 13 14  1  0
 14 15  1  0
 15 16  1  0
 14 17  2  0
 17 18  1  0
 18 19  1  0
 17 20  1  0
 20 21  1  0
 21 22  1  0
 20 23  2  0
 23 12  1  0
 11 24  1  0
 24 25  1  0
 26 25  1  4
 26 11  1  0
 26 27  1  0
 27 28  1  4
 28 29  1  0
 30 29  1  4
 30  5  1  0
 31 30  1  4
 31 27  1  0
 31 26  1  0
M  END
> <Smiles>
COc1cc2c(cc1OC)C1(c3cc(OC)c(OC)c(OC)c3)OCC13C1COC2C13

> <ID>
CHEMBL18472

> <standard_value>
31622.78

> <IC50_uM>
31.62278

> <Activity>
No

> <pIC50>
4.499999953

> <BCI>
0

$$$$

  SciTegic03012415362D

 27 29  0  0  0  0            999 V2000
    3.8983   -0.7459    0.0000 C   0  0
    2.6003   -1.4977    0.0000 O   0  0
    1.2990   -0.7500    0.0000 C   0  0
    1.2990    0.7500    0.0000 C   0  0
    0.0000    1.5000    0.0000 C   0  0
   -1.2990    0.7500    0.0000 C   0  0
   -2.5987    1.5004    0.0000 N   0  0
   -3.9492    0.8772    0.0000 C   0  0
   -4.9546    1.9903    0.0000 C   0  0
   -6.4469    1.8311    0.0000 C   0  0
   -7.1532    0.5134    0.0000 C   0  0
   -8.6524    0.4669    0.0000 C   0  0
   -9.3595   -0.8569    0.0000 O   0  0
   -8.5678   -2.1310    0.0000 C   0  0
   -9.4423    1.7421    0.0000 C   0  0
  -10.9425    1.6987    0.0000 O   0  0
  -11.7306    2.9750    0.0000 C   0  0
   -8.7329    3.0637    0.0000 C   0  0
   -9.5206    4.3412    0.0000 O   0  0
   -8.8094    5.6619    0.0000 C   0  0
   -7.2337    3.1102    0.0000 C   0  0
   -4.2067    3.2905    0.0000 N   0  0
   -2.7390    2.9810    0.0000 C   0  0
   -1.6199    3.9798    0.0000 O   0  0
   -1.2990   -0.7500    0.0000 C   0  0
    0.0000   -1.5000    0.0000 C   0  0
    0.0000   -3.0000    0.0000 Cl  0  0
  1  2  1  0
  2  3  1  0
  3  4  2  0
  4  5  1  0
  5  6  2  0
  6  7  1  0
  7  8  1  0
  8  9  2  0
  9 10  1  0
 10 11  2  0
 11 12  1  0
 12 13  1  0
 13 14  1  0
 12 15  2  0
 15 16  1  0
 16 17  1  0
 15 18  1  0
 18 19  1  0
 19 20  1  0
 18 21  2  0
 21 10  1  0
  9 22  1  0
 22 23  1  0
 23  7  1  0
 23 24  2  0
  6 25  1  0
 25 26  2  0
 26  3  1  0
 26 27  1  0
M  END
> <Smiles>
COc1ccc(-n2cc(-c3cc(OC)c(OC)c(OC)c3)[nH]c2=O)cc1Cl

> <ID>
CHEMBL402335

> <standard_value>
31622.78

> <IC50_uM>
31.62278

> <Activity>
No

> <pIC50>
4.499999953

> <BCI>
0

$$$$

  SciTegic03012415362D

 26 27  0  0  1  0            999 V2000
    5.3192   -0.2597    0.0000 C   0  0
    4.1500    0.6800    0.0000 C   0  0  1  0  0  0
    2.5200    0.3600    0.0000 C   0  0
    2.3100   -1.1700    0.0000 C   0  0
    1.3300   -1.6300    0.0000 C   0  0
    0.1900   -1.1200    0.0000 C   0  0
    0.0000    0.3600    0.0000 C   0  0
   -1.5600    0.8100    0.0000 C   0  0  2  0  0  0
   -3.0100    0.3400    0.0000 C   0  0
   -3.9100    1.5700    0.0000 C   0  0  2  0  0  0
   -5.4100    1.5671    0.0000 O   0  0
   -3.0100    2.8100    0.0000 C   0  0
   -1.5600    2.3300    0.0000 C   0  0  1  0  0  0
    0.0000    2.8600    0.0000 C   0  0  2  0  0  0
    0.7452    2.1932    0.0000 O   0  0
    0.3300    4.3600    0.0000 C   0  0  2  0  0  0
   -0.6528    5.4848    0.0000 S   0  0
   -2.1250    5.1934    0.0000 C   0  0
   -3.1143    6.3220    0.0000 C   0  0  3  0  0  0
   -2.6313    7.7421    0.0000 O   0  0
   -4.5865    6.0306    0.0000 C   0  0
   -5.5752    7.1586    0.0000 O   0  0
    2.3100    4.3400    0.0000 C   0  0
    2.6000    2.8000    0.0000 C   0  0
    1.8719    2.1146    0.0000 O   0  0
    4.1100    2.4200    0.0000 O   0  0
  2  1  1  1
  2  3  1  0
  3  4  1  0
  4  5  1  0
  5  6  1  0
  6  7  2  0
  8  7  1  6
  8  9  1  0
  9 10  1  0
 10 11  1  6
 10 12  1  0
 13 12  1  1
 13  8  1  0
 13 14  1  0
 14 15  1  1
 14 16  1  0
 16 17  1  6
 17 18  1  0
 18 19  1  0
 19 20  1  4
 19 21  1  0
 21 22  1  0
 16 23  1  0
 23 24  1  0
 24 25  2  0
 24 26  1  0
 26  2  1  0
M  END
> <Smiles>
C[C@H]1CCC/C=C/[C@@H]2C[C@H](O)C[C@H]2[C@H](O)[C@H](SCC(O)CO)CC(=O)O1

> <ID>
CHEMBL113363

> <standard_value>
32000

> <IC50_uM>
32

> <Activity>
No

> <pIC50>
4.494850022

> <BCI>
0

$$$$

  SciTegic03012415362D

 32 36  0  0  0  0            999 V2000
    9.0905    0.7726    0.0000 O   0  0
    7.7891    1.5185    0.0000 S   0  0
    9.0859    2.2724    0.0000 O   0  0
    7.7849    3.0193    0.0000 N   0  0
    9.0820    3.7742    0.0000 C   0  0
    9.2178    5.2552    0.0000 N   0  0
   10.6846    5.5692    0.0000 C   0  0
   11.4364    4.2712    0.0000 C   0  0
   10.4343    3.1551    0.0000 S   0  0
    6.4920    0.7636    0.0000 C   0  0
    6.4972   -0.7364    0.0000 C   0  0
    5.2007   -1.4909    0.0000 C   0  0
    3.8990   -0.7455    0.0000 C   0  0
    2.6003   -1.4977    0.0000 N   0  0
    1.2990   -0.7500    0.0000 C   0  0
    1.2990    0.7500    0.0000 N   0  0
    0.0000    1.5000    0.0000 C   0  0
    0.0000    3.0008    0.0000 C   0  0
    1.2121    3.8625    0.0000 C   0  0
    0.7463    5.2884    0.0000 C   0  0
   -0.7537    5.2860    0.0000 C   0  0
   -1.2149    3.8587    0.0000 S   0  0
   -1.2990    0.7500    0.0000 N   0  0
   -1.2990   -0.7500    0.0000 C   0  0
   -2.5981   -1.5000    0.0000 C   0  0
   -2.5981   -3.0000    0.0000 C   0  0
   -1.2990   -3.7500    0.0000 C   0  0
   -1.2990   -5.2500    0.0000 I   0  0
    0.0000   -3.0000    0.0000 C   0  0
    0.0000   -1.5000    0.0000 C   0  0
    3.8939    0.7546    0.0000 C   0  0
    5.1903    1.5091    0.0000 C   0  0
  1  2  2  0
  2  3  2  0
  2  4  1  0
  4  5  1  0
  5  6  2  0
  6  7  1  0
  7  8  2  0
  8  9  1  0
  9  5  1  0
  2 10  1  0
 10 11  2  0
 11 12  1  0
 12 13  2  0
 13 14  1  0
 14 15  1  0
 15 16  2  0
 16 17  1  0
 17 18  1  0
 18 19  2  0
 19 20  1  0
 20 21  2  0
 21 22  1  0
 22 18  1  0
 17 23  2  0
 23 24  1  0
 24 25  2  0
 25 26  1  0
 26 27  2  0
 27 28  1  0
 27 29  1  0
 29 30  2  0
 30 15  1  0
 30 24  1  0
 13 31  1  0
 31 32  2  0
 32 10  1  0
M  END
> <Smiles>
O=S(=O)(Nc1nccs1)c1ccc(Nc2nc(-c3cccs3)nc3ccc(I)cc23)cc1

> <ID>
CHEMBL559075

> <standard_value>
32000

> <IC50_uM>
32

> <Activity>
No

> <pIC50>
4.494850022

> <BCI>
0

$$$$

  SciTegic03012415362D

 39 42  0  0  1  0            999 V2000
   11.6914   -0.7139    0.0000 C   0  0
   11.6857    0.7861    0.0000 C   0  0
   10.3836    1.5324    0.0000 O   0  0
   10.3779    3.0332    0.0000 C   0  0
   11.6744    3.7877    0.0000 O   0  0
    9.0758    3.7795    0.0000 C   0  0  2  0  0  0
    9.0685    5.2803    0.0000 C   0  0
   10.3641    6.0379    0.0000 C   0  0
   10.3568    7.5387    0.0000 C   0  0
   11.6516    8.2959    0.0000 O   0  0
    9.0538    8.2819    0.0000 O   0  0
    7.7802    3.0220    0.0000 N   0  0
    7.7876    1.5211    0.0000 C   0  0
    9.0905    0.7779    0.0000 O   0  0
    6.4920    0.7636    0.0000 C   0  0
    6.4972   -0.7364    0.0000 C   0  0
    5.2007   -1.4909    0.0000 C   0  0
    3.8990   -0.7455    0.0000 C   0  0
    2.6003   -1.4977    0.0000 O   0  0
    1.2990   -0.7500    0.0000 C   0  0
    1.2990    0.7500    0.0000 N   0  0
    0.0000    1.5000    0.0000 C   0  0
    0.0000    3.0000    0.0000 C   0  0
   -1.2991    3.7500    0.0000 C   0  0
   -1.2991    5.2500    0.0000 N   0  0
   -2.5981    3.0000    0.0000 C   0  0
   -2.5981    1.5000    0.0000 C   0  0
   -3.8971    0.7500    0.0000 N   0  0
   -1.2990    0.7500    0.0000 C   0  0
   -1.2990   -0.7500    0.0000 N   0  0
    0.0000   -1.5000    0.0000 C   0  0
    0.0000   -3.0008    0.0000 C   0  0
   -1.2978   -3.7529    0.0000 C   0  0
   -1.2955   -5.2529    0.0000 C   0  0
    0.0048   -6.0009    0.0000 C   0  0
    1.3026   -5.2488    0.0000 C   0  0
    1.3002   -3.7488    0.0000 C   0  0
    3.8939    0.7546    0.0000 C   0  0
    5.1903    1.5091    0.0000 C   0  0
  1  2  1  0
  2  3  1  0
  3  4  1  0
  4  5  2  0
  4  6  1  0
  6  7  1  1
  7  8  1  0
  8  9  1  0
  9 10  2  0
  9 11  1  0
  6 12  1  0
 12 13  1  0
 13 14  2  0
 13 15  1  0
 15 16  2  0
 16 17  1  0
 17 18  2  0
 18 19  1  0
 19 20  1  0
 20 21  2  0
 21 22  1  0
 22 23  2  0
 23 24  1  0
 24 25  1  0
 24 26  2  0
 26 27  1  0
 27 28  1  0
 27 29  2  0
 29 22  1  0
 29 30  1  0
 30 31  2  0
 31 20  1  0
 31 32  1  0
 32 33  2  0
 33 34  1  0
 34 35  2  0
 35 36  1  0
 36 37  2  0
 37 32  1  0
 18 38  1  0
 38 39  2  0
 39 15  1  0
M  END
> <Smiles>
CCOC(=O)[C@H](CCC(=O)O)NC(=O)c1ccc(Oc2nc3cc(N)cc(N)c3nc2-c2ccccc2)cc1

> <ID>
CHEMBL519061

> <standard_value>
33884.42

> <IC50_uM>
33.88442

> <Activity>
No

> <pIC50>
4.469999944

> <BCI>
0

$$$$

  SciTegic03012415362D

 50 53  0  0  1  0            999 V2000
   33.8771  -14.8119    0.0000 C   0  0
   34.1939  -13.3457    0.0000 C   0  0  1  0  0  0
   33.1941  -12.2276    0.0000 C   0  0
   33.9573  -10.9511    0.0000 C   0  0
   33.3488   -9.5792    0.0000 C   0  0
   31.8565   -9.4193    0.0000 C   0  0
   31.2479   -8.0474    0.0000 C   0  0
   29.7557   -7.8876    0.0000 C   0  0
   29.1471   -6.5156    0.0000 C   0  0
   27.6548   -6.3558    0.0000 C   0  0
   27.0462   -4.9839    0.0000 C   0  0
   25.5540   -4.8240    0.0000 C   0  0
   24.9454   -3.4521    0.0000 C   0  0
   23.4531   -3.2922    0.0000 C   0  0
   22.8446   -1.9203    0.0000 C   0  0
   21.3523   -1.7604    0.0000 C   0  0
   20.7437   -0.3885    0.0000 C   0  0  1  0  0  0
   21.6274    0.8235    0.0000 O   0  0
   19.2540   -0.2289    0.0000 C   0  0  1  0  0  0
   18.5039    1.0701    0.0000 C   0  0
   17.0367    0.7581    0.0000 C   0  0
   16.8989   -0.7228    0.0000 C   0  0  2  0  0  0
   15.6002   -1.4751    0.0000 C   0  0  2  0  0  0
   15.6028   -2.9751    0.0000 O   0  0
   14.2989   -0.7273    0.0000 C   0  0
   13.0002   -1.4796    0.0000 C   0  0
   11.6990   -0.7319    0.0000 C   0  0
   10.4003   -1.4841    0.0000 C   0  0
    9.0990   -0.7364    0.0000 C   0  0
    7.8003   -1.4887    0.0000 C   0  0
    6.4990   -0.7409    0.0000 C   0  0
    5.2003   -1.4932    0.0000 C   0  0
    3.8990   -0.7455    0.0000 C   0  0
    2.6003   -1.4977    0.0000 N   0  0
    1.2990   -0.7500    0.0000 C   0  0
    1.2990    0.7500    0.0000 C   0  0
    0.0000    1.5000    0.0000 C   0  0
   -1.2990    0.7500    0.0000 C   0  0
   -2.5973    1.5031    0.0000 N   0  3
   -2.5951    3.0031    0.0000 O   0  0
   -3.8976    0.7553    0.0000 O   0  5
   -1.2990   -0.7500    0.0000 C   0  0
   -2.4133   -1.7530    0.0000 N   0  0
   -1.8032   -3.1233    0.0000 O   0  0
   -0.3114   -2.9665    0.0000 N   0  0
    0.0000   -1.5000    0.0000 C   0  0
   18.2504   -1.3437    0.0000 O   0  0
   35.4147  -11.2480    0.0000 C   0  0
   36.5268  -10.2415    0.0000 O   0  0
   35.5663  -12.7403    0.0000 O   0  0
  2  1  1  1
  2  3  1  0
  3  4  2  0
  4  5  1  0
  5  6  1  0
  6  7  1  0
  7  8  1  0
  8  9  1  0
  9 10  1  0
 10 11  1  0
 11 12  1  0
 12 13  1  0
 13 14  1  0
 14 15  1  0
 15 16  1  0
 16 17  1  0
 17 18  1  6
 17 19  1  0
 19 20  1  6
 20 21  1  0
 22 21  1  1
 22 23  1  0
 23 24  1  6
 23 25  1  0
 25 26  1  0
 26 27  1  0
 27 28  1  0
 28 29  1  0
 29 30  1  0
 30 31  1  0
 31 32  1  0
 32 33  1  0
 33 34  1  0
 34 35  1  0
 35 36  2  0
 36 37  1  0
 37 38  2  0
 38 39  1  0
 39 40  2  0
 39 41  1  0
 38 42  1  0
 42 43  2  0
 43 44  1  0
 44 45  1  0
 45 46  2  0
 46 35  1  0
 46 42  1  0
 22 47  1  0
 47 19  1  0
  4 48  1  0
 48 49  2  0
 48 50  1  0
 50  2  1  0
M  CHG  2  39   1  41  -1
M  END
> <Smiles>
C[C@H]1C=C(CCCCCCCCCCCC[C@@H](O)[C@H]2CC[C@H]([C@H](O)CCCCCCCCCNc3ccc([N+](=O)[O-])c4nonc34)O2)C(=O)O1

> <ID>
CHEMBL1288627

> <standard_value>
33884.42

> <IC50_uM>
33.88442

> <Activity>
No

> <pIC50>
4.469999944

> <BCI>
0

$$$$

  SciTegic03012415362D

 23 26  0  0  1  0            999 V2000
    5.1996   -1.4928    0.0000 C   0  0
    3.8990   -0.7455    0.0000 O   0  0
    2.6003   -1.4977    0.0000 C   0  0
    1.2990   -0.7500    0.0000 C   0  0
    1.2990    0.7500    0.0000 C   0  0
    0.0000    1.5000    0.0000 C   0  0
   -1.2990    0.7500    0.0000 C   0  0
   -1.2990   -0.7500    0.0000 C   0  0
    0.0000   -1.5000    0.0000 C   0  0
    0.0000   -3.0000    0.0000 O   0  0
   -2.5981    1.5000    0.0000 C   0  0
   -2.5981    3.0000    0.0000 C   0  0
   -1.2991    3.7500    0.0000 C   0  0  2  0  0  0
    0.0000    3.0000    0.0000 C   0  0  2  0  0  0
    1.2990    3.7500    0.0000 C   0  0
    1.2990    5.2500    0.0000 C   0  0
    0.0000    6.0000    0.0000 C   0  0  2  0  0  0
    1.2211    6.8711    0.0000 C   0  0
   -0.2851    7.4666    0.0000 C   0  0  1  0  0  0
    0.7318    8.5693    0.0000 O   0  0
   -1.7759    7.6329    0.0000 C   0  0
   -2.3947    6.2665    0.0000 C   0  0
   -1.2991    5.2500    0.0000 C   0  0  1  0  0  0
  1  2  1  0
  2  3  1  0
  3  4  1  0
  4  5  2  0
  5  6  1  0
  6  7  2  0
  7  8  1  0
  8  9  2  0
  9  4  1  0
  9 10  1  0
  7 11  1  0
 11 12  1  0
 13 12  1  1
 13 14  1  0
 14  6  1  0
 14 15  1  6
 15 16  1  0
 16 17  1  0
 17 18  1  6
 17 19  1  0
 19 20  1  6
 19 21  1  0
 21 22  1  0
 23 22  1  6
 23 13  1  0
 23 17  1  0
M  END
> <Smiles>
COCc1cc2c(cc1O)CC[C@@H]1[C@@H]2CC[C@]2(C)[C@@H](O)CC[C@@H]12

> <ID>
CHEMBL1628187

> <standard_value>
33900

> <IC50_uM>
33.9

> <Activity>
No

> <pIC50>
4.469800302

> <BCI>
0

$$$$

  SciTegic03012415362D

 25 26  0  0  1  0            999 V2000
    5.3192   -0.2597    0.0000 C   0  0
    4.1500    0.6800    0.0000 C   0  0  1  0  0  0
    2.5200    0.3600    0.0000 C   0  0
    2.3100   -1.1700    0.0000 C   0  0
    1.3300   -1.6300    0.0000 C   0  0
    0.1900   -1.1200    0.0000 C   0  0
    0.0000    0.3600    0.0000 C   0  0
   -1.5600    0.8100    0.0000 C   0  0  2  0  0  0
   -3.0100    0.3400    0.0000 C   0  0
   -3.9100    1.5700    0.0000 C   0  0  2  0  0  0
   -5.4100    1.5671    0.0000 O   0  0
   -3.0100    2.8100    0.0000 C   0  0
   -1.5600    2.3300    0.0000 C   0  0  1  0  0  0
    0.0000    2.8600    0.0000 C   0  0  2  0  0  0
    0.7452    2.1932    0.0000 O   0  0
    0.3300    4.3600    0.0000 C   0  0  2  0  0  0
   -0.6528    5.4848    0.0000 S   0  0
   -2.1250    5.1934    0.0000 C   0  0
   -3.1143    6.3220    0.0000 C   0  0
   -4.5857    6.0307    0.0000 O   0  0
   -2.6313    7.7421    0.0000 O   0  0
    2.3100    4.3400    0.0000 C   0  0
    2.6000    2.8000    0.0000 C   0  0
    1.8719    2.1146    0.0000 O   0  0
    4.1100    2.4200    0.0000 O   0  0
  2  1  1  1
  2  3  1  0
  3  4  1  0
  4  5  1  0
  5  6  1  0
  6  7  2  0
  8  7  1  6
  8  9  1  0
  9 10  1  0
 10 11  1  6
 10 12  1  0
 13 12  1  1
 13  8  1  0
 13 14  1  0
 14 15  1  1
 14 16  1  0
 16 17  1  6
 17 18  1  0
 18 19  1  0
 19 20  2  0
 19 21  1  0
 16 22  1  0
 22 23  1  0
 23 24  2  0
 23 25  1  0
 25  2  1  0
M  END
> <Smiles>
C[C@H]1CCC/C=C/[C@@H]2C[C@H](O)C[C@H]2[C@H](O)[C@H](SCC(=O)O)CC(=O)O1

> <ID>
CHEMBL111855

> <standard_value>
34000

> <IC50_uM>
34

> <Activity>
No

> <pIC50>
4.468521083

> <BCI>
0

$$$$

  SciTegic03012415362D

 27 30  0  0  0  0            999 V2000
    2.5981   -1.5000    0.0000 O   0  0
    1.2990   -0.7500    0.0000 C   0  0
    1.2990    0.7500    0.0000 C   0  0
    2.5981    1.5000    0.0000 C   0  0
    2.5981    3.0000    0.0000 C   0  0
    3.8971    3.7500    0.0000 I   0  0
    1.2990    3.7500    0.0000 C   0  0
    0.0000    3.0000    0.0000 C   0  0
    0.0000    1.5000    0.0000 C   0  0
   -1.2990    0.7500    0.0000 N   0  0
   -1.2990   -0.7500    0.0000 C   0  0
   -2.5987   -1.5004    0.0000 C   0  0
   -3.9511   -0.8815    0.0000 C   0  0
   -4.9530   -1.9978    0.0000 C   0  0
   -4.2010   -3.2957    0.0000 C   0  0
   -2.7343   -2.9815    0.0000 S   0  0
    0.0000   -1.5000    0.0000 N   0  0
    0.0031   -3.0008    0.0000 N   0  0
    1.3039   -3.7494    0.0000 C   0  0
    2.6016   -2.9971    0.0000 S   0  0
    1.3070   -5.2502    0.0000 N   0  0
    2.6078   -5.9988    0.0000 C   0  0
    2.6131   -7.4988    0.0000 C   0  0
    3.9147   -8.2443    0.0000 C   0  0
    5.2112   -7.4898    0.0000 C   0  0
    5.2060   -5.9898    0.0000 C   0  0
    3.9044   -5.2443    0.0000 C   0  0
  1  2  2  0
  2  3  1  0
  3  4  2  0
  4  5  1  0
  5  6  1  0
  5  7  2  0
  7  8  1  0
  8  9  2  0
  9  3  1  0
  9 10  1  0
 10 11  2  0
 11 12  1  0
 12 13  2  0
 13 14  1  0
 14 15  2  0
 15 16  1  0
 16 12  1  0
 11 17  1  0
 17  2  1  0
 17 18  1  0
 18 19  1  0
 19 20  2  0
 19 21  1  0
 21 22  1  0
 22 23  2  0
 23 24  1  0
 24 25  2  0
 25 26  1  0
 26 27  2  0
 27 22  1  0
M  END
> <Smiles>
O=c1c2cc(I)ccc2nc(-c2cccs2)n1NC(=S)Nc1ccccc1

> <ID>
CHEMBL561829

> <standard_value>
34000

> <IC50_uM>
34

> <Activity>
No

> <pIC50>
4.468521083

> <BCI>
0

$$$$

  SciTegic03012415362D

 24 27  0  0  0  0            999 V2000
    3.9907   -6.0749    0.0000 N   0  0
    3.2029   -4.7985    0.0000 C   0  0
    3.9144   -3.4780    0.0000 C   0  0
    3.1265   -2.2016    0.0000 C   0  0
    1.6321   -2.2464    0.0000 C   0  0
    0.7500   -1.0323    0.0000 C   0  0
    1.2135    0.3943    0.0000 N   0  0
    0.0000    1.2760    0.0000 N   0  0
   -0.4623    2.7009    0.0000 C   0  0
    0.4164    3.9144    0.0000 C   0  0
   -0.1953    5.2849    0.0000 O   0  0
    0.6849    6.5005    0.0000 C   0  0
    0.0755    7.8711    0.0000 C   0  0
    0.9577    9.0842    0.0000 C   0  0
    2.4494    8.9268    0.0000 C   0  0
    3.3317   10.1399    0.0000 Cl  0  0
    3.0589    7.5562    0.0000 C   0  0
    2.1767    6.3431    0.0000 C   0  0
   -1.9623    2.7008    0.0000 N   0  0
   -2.4258    1.2743    0.0000 N   0  0
   -1.2135    0.3943    0.0000 C   0  0
   -0.7500   -1.0323    0.0000 S   0  0
    0.9157   -3.5662    0.0000 C   0  0
    1.7035   -4.8426    0.0000 C   0  0
  1  2  1  0
  2  3  2  0
  3  4  1  0
  4  5  2  0
  5  6  1  0
  6  7  2  0
  7  8  1  0
  8  9  1  0
  9 10  1  0
 10 11  1  0
 11 12  1  0
 12 13  2  0
 13 14  1  0
 14 15  2  0
 15 16  1  0
 15 17  1  0
 17 18  2  0
 18 12  1  0
  9 19  2  0
 19 20  1  0
 20 21  2  0
 21  8  1  0
 21 22  1  0
 22  6  1  0
  5 23  1  0
 23 24  2  0
 24  2  1  0
M  END
> <Smiles>
Nc1ccc(-c2nn3c(COc4ccc(Cl)cc4)nnc3s2)cc1

> <ID>
CHEMBL561179

> <standard_value>
34673.69

> <IC50_uM>
34.67369

> <Activity>
No

> <pIC50>
4.459999938

> <BCI>
0

$$$$

  SciTegic03012415362D

 24 27  0  0  1  0            999 V2000
    3.8964    0.7545    0.0000 C   0  0
    3.8990   -0.7455    0.0000 C   0  0
    5.1996   -1.4928    0.0000 O   0  0
    2.6003   -1.4977    0.0000 N   0  0
    1.2990   -0.7500    0.0000 C   0  0
    1.2990    0.7500    0.0000 C   0  0
    0.0000    1.5000    0.0000 C   0  0
   -1.2990    0.7500    0.0000 C   0  0
   -1.2990   -0.7500    0.0000 C   0  0
    0.0000   -1.5000    0.0000 C   0  0
    0.0000   -3.0000    0.0000 O   0  0
   -2.5981    1.5000    0.0000 C   0  0
   -2.5981    3.0000    0.0000 C   0  0
   -1.2991    3.7500    0.0000 C   0  0  2  0  0  0
    0.0000    3.0000    0.0000 C   0  0  2  0  0  0
    1.2990    3.7500    0.0000 C   0  0
    1.2990    5.2500    0.0000 C   0  0
    0.0000    6.0000    0.0000 C   0  0  2  0  0  0
    1.2211    6.8711    0.0000 C   0  0
   -0.2851    7.4666    0.0000 C   0  0  1  0  0  0
    0.7318    8.5693    0.0000 O   0  0
   -1.7759    7.6329    0.0000 C   0  0
   -2.3947    6.2665    0.0000 C   0  0
   -1.2991    5.2500    0.0000 C   0  0  1  0  0  0
  1  2  1  0
  2  3  2  0
  2  4  1  0
  4  5  1  0
  5  6  2  0
  6  7  1  0
  7  8  2  0
  8  9  1  0
  9 10  2  0
 10  5  1  0
 10 11  1  0
  8 12  1  0
 12 13  1  0
 14 13  1  1
 14 15  1  0
 15  7  1  0
 15 16  1  6
 16 17  1  0
 17 18  1  0
 18 19  1  6
 18 20  1  0
 20 21  1  6
 20 22  1  0
 22 23  1  0
 24 23  1  6
 24 14  1  0
 24 18  1  0
M  END
> <Smiles>
CC(=O)Nc1cc2c(cc1O)CC[C@@H]1[C@@H]2CC[C@]2(C)[C@@H](O)CC[C@@H]12

> <ID>
CHEMBL1627843

> <standard_value>
35000

> <IC50_uM>
35

> <Activity>
No

> <pIC50>
4.455931956

> <BCI>
0

$$$$

  SciTegic03012415362D

 25 26  0  0  1  0            999 V2000
   -3.2806   -3.9906    0.0000 C   0  0
   -1.8747   -4.5136    0.0000 C   0  0  3  0  0  0
   -1.6252   -5.9927    0.0000 O   0  0
   -0.7185   -3.5567    0.0000 C   0  0
   -0.9682   -2.0768    0.0000 S   0  0
    0.1900   -1.1200    0.0000 C   0  0  2  0  0  0
    1.3300   -1.6300    0.0000 C   0  0
    2.3100   -1.1700    0.0000 C   0  0
    3.5183   -2.0588    0.0000 O   0  0
    2.5200    0.3600    0.0000 O   0  0
    4.1500    0.6800    0.0000 C   0  0  1  0  0  0
    5.3192   -0.2597    0.0000 C   0  0
    4.1100    2.4200    0.0000 C   0  0
    2.6000    2.8000    0.0000 C   0  0
    2.3100    4.3400    0.0000 C   0  0
    0.3300    4.3600    0.0000 C   0  0
    0.0000    2.8600    0.0000 C   0  0
   -1.5600    2.3300    0.0000 C   0  0  2  0  0  0
   -3.0100    2.8100    0.0000 C   0  0
   -3.9100    1.5700    0.0000 C   0  0  2  0  0  0
   -5.4100    1.5671    0.0000 O   0  0
   -3.0100    0.3400    0.0000 C   0  0
   -1.5600    0.8100    0.0000 C   0  0  1  0  0  0
    0.0000    0.3600    0.0000 C   0  0  2  0  0  0
    1.1387    1.3364    0.0000 O   0  0
  2  1  1  4
  2  3  1  0
  2  4  1  0
  4  5  1  0
  6  5  1  1
  6  7  1  0
  7  8  1  0
  8  9  2  0
  8 10  1  0
 10 11  1  0
 11 12  1  6
 11 13  1  0
 13 14  1  0
 14 15  1  0
 15 16  1  0
 16 17  2  0
 18 17  1  1
 18 19  1  0
 19 20  1  0
 20 21  1  1
 20 22  1  0
 23 22  1  6
 23 18  1  0
 23 24  1  0
 24  6  1  0
 24 25  1  6
M  END
> <Smiles>
CC(O)CS[C@@H]1CC(=O)O[C@@H](C)CCC/C=C/[C@@H]2C[C@H](O)C[C@H]2[C@@H]1O

> <ID>
CHEMBL126376

> <standard_value>
35500

> <IC50_uM>
35.5

> <Activity>
No

> <pIC50>
4.449771647

> <BCI>
0

$$$$

  SciTegic03012415362D

 32 35  0  0  0  0            999 V2000
    3.8983   -0.7459    0.0000 C   0  0
    2.6003   -1.4977    0.0000 O   0  0
    1.2990   -0.7500    0.0000 C   0  0
    1.2990    0.7500    0.0000 C   0  0
    0.0000    1.5000    0.0000 C   0  0
   -1.2990    0.7500    0.0000 C   0  0
   -1.2990   -0.7500    0.0000 C   0  0
    0.0000   -1.5000    0.0000 C   0  0
   -0.0031   -3.0008    0.0000 O   0  0
   -1.3032   -3.7490    0.0000 C   0  0
   -2.4133    1.7530    0.0000 C   0  0
   -1.8032    3.1233    0.0000 C   0  0
   -2.6838    4.3363    0.0000 C   0  0
   -2.0737    5.7066    0.0000 C   0  0
   -2.9554    6.9201    0.0000 C   0  0
   -4.4472    6.7633    0.0000 C   0  0
   -5.3318    7.9757    0.0000 N   0  3
   -6.8234    7.8168    0.0000 O   0  0
   -4.7241    9.3471    0.0000 O   0  5
   -5.0572    5.3930    0.0000 C   0  0
   -4.1756    4.1795    0.0000 C   0  0
   -4.7857    2.8092    0.0000 C   0  0
   -6.2774    2.6524    0.0000 O   0  0
   -3.9040    1.5956    0.0000 N   0  0
   -4.5167    0.2256    0.0000 C   0  0
   -6.0094    0.0702    0.0000 C   0  0
   -6.6221   -1.2999    0.0000 C   0  0
   -8.1149   -1.4552    0.0000 N   0  0
   -8.7276   -2.8253    0.0000 N   0  3
   -9.3399   -4.1946    0.0000 N   0  5
   -0.3115    2.9665    0.0000 C   0  0
    0.6923    4.0811    0.0000 O   0  0
  1  2  1  0
  2  3  1  0
  3  4  2  0
  4  5  1  0
  5  6  2  0
  6  7  1  0
  7  8  2  0
  8  3  1  0
  8  9  1  0
  9 10  1  0
  6 11  1  0
 11 12  2  0
 12 13  1  0
 13 14  2  0
 14 15  1  0
 15 16  2  0
 16 17  1  0
 17 18  2  0
 17 19  1  0
 16 20  1  0
 20 21  2  0
 21 13  1  0
 21 22  1  0
 22 23  2  0
 22 24  1  0
 24 11  1  0
 24 25  1  0
 25 26  1  0
 26 27  1  0
 27 28  1  0
 28 29  2  0
 29 30  2  0
 12 31  1  0
 31  5  1  0
 31 32  2  0
M  CHG  4  17   1  19  -1  29   1  30  -1
M  END
> <Smiles>
COc1cc2c(cc1OC)-c1c(c3ccc([N+](=O)[O-])cc3c(=O)n1CCCN=[N+]=[N-])C2=O

> <ID>
CHEMBL219170

> <standard_value>
36300

> <IC50_uM>
36.3

> <Activity>
No

> <pIC50>
4.440093375

> <BCI>
0

$$$$

  SciTegic03012415362D

 34 38  0  0  0  0            999 V2000
    7.7496  -14.9904    0.0000 C   0  0
    9.0535  -14.2488    0.0000 C   0  0
    9.0641  -12.7480    0.0000 C   0  0
   10.3669  -12.0045    0.0000 C   0  0
   10.3744  -10.5045    0.0000 N   0  0
    9.0792   -9.7479    0.0000 C   0  0
    9.0843   -8.2472    0.0000 N   0  0
   10.3859   -7.5016    0.0000 C   0  0
   10.3911   -6.0016    0.0000 C   0  0
    9.0946   -5.2471    0.0000 N   0  0
    9.0967   -3.7463    0.0000 C   0  0
   10.3971   -2.9985    0.0000 O   0  0
    7.7985   -2.9932    0.0000 C   0  0
    7.7985   -1.4932    0.0000 C   0  0
    6.4994   -0.7432    0.0000 C   0  0
    5.2003   -1.4932    0.0000 C   0  0
    3.8990   -0.7455    0.0000 C   0  0
    2.6003   -1.4977    0.0000 N   0  0
    1.2990   -0.7500    0.0000 C   0  0
    1.2990    0.7500    0.0000 N   0  0
    0.0000    1.5000    0.0000 C   0  0
   -1.2990    0.7500    0.0000 N   0  0
   -1.2990   -0.7500    0.0000 C   0  0
   -2.5981   -1.5000    0.0000 C   0  0
   -2.5981   -3.0000    0.0000 C   0  0
   -1.2990   -3.7500    0.0000 C   0  0
    0.0000   -3.0000    0.0000 C   0  0
    0.0000   -1.5000    0.0000 C   0  0
    5.2004   -2.9933    0.0000 C   0  0
    6.4995   -3.7432    0.0000 C   0  0
    7.7930   -5.9927    0.0000 C   0  0
    7.7879   -7.4927    0.0000 C   0  0
    7.7764  -10.4915    0.0000 N   0  0
    7.7688  -11.9915    0.0000 C   0  0
  1  2  1  0
  2  3  1  0
  3  4  2  0
  4  5  1  0
  5  6  2  0
  6  7  1  0
  7  8  1  0
  8  9  1  0
  9 10  1  0
 10 11  1  0
 11 12  2  0
 11 13  1  0
 13 14  2  0
 14 15  1  0
 15 16  2  0
 16 17  1  0
 17 18  1  0
 18 19  1  0
 19 20  2  0
 20 21  1  0
 21 22  2  0
 22 23  1  0
 23 24  2  0
 24 25  1  0
 25 26  2  0
 26 27  1  0
 27 28  2  0
 28 19  1  0
 28 23  1  0
 16 29  1  0
 29 30  2  0
 30 13  1  0
 10 31  1  0
 31 32  1  0
 32  7  1  0
  6 33  1  0
 33 34  2  0
 34  3  1  0
M  END
> <Smiles>
CCc1cnc(N2CCN(C(=O)c3ccc(CNc4ncnc5ccccc45)cc3)CC2)nc1

> <ID>
CHEMBL1783929

> <standard_value>
36400

> <IC50_uM>
36.4

> <Activity>
No

> <pIC50>
4.438898616

> <BCI>
0

$$$$

  SciTegic03012415362D

 19 20  0  0  0  0            999 V2000
    2.5983   -3.0004    0.0000 N   0  0
    2.5988   -1.5004    0.0000 S   0  0
    3.8983   -0.7512    0.0000 O   0  0
    3.8975   -2.2510    0.0000 O   0  0
    1.2990   -0.7500    0.0000 C   0  0
    1.2990    0.7500    0.0000 C   0  0
    0.0000    1.5000    0.0000 C   0  0
   -1.2990    0.7500    0.0000 C   0  0
   -2.6003    1.4977    0.0000 C   0  0
   -3.8990    0.7455    0.0000 C   0  0
   -5.2003    1.4932    0.0000 C   0  0
   -6.4994    0.7432    0.0000 C   0  0
   -7.7985    1.4932    0.0000 C   0  0
   -7.7985    2.9932    0.0000 C   0  0
   -6.4995    3.7432    0.0000 C   0  0
   -6.4995    5.2432    0.0000 O   0  0
   -5.2004    2.9933    0.0000 C   0  0
   -1.2990   -0.7500    0.0000 C   0  0
    0.0000   -1.5000    0.0000 C   0  0
  1  2  1  0
  2  3  2  0
  2  4  2  0
  2  5  1  0
  5  6  2  0
  6  7  1  0
  7  8  2  0
  8  9  1  0
  9 10  2  0
 10 11  1  0
 11 12  2  0
 12 13  1  0
 13 14  2  0
 14 15  1  0
 15 16  1  0
 15 17  2  0
 17 11  1  0
  8 18  1  0
 18 19  2  0
 19  5  1  0
M  END
> <Smiles>
NS(=O)(=O)c1ccc(/C=C/c2cccc(O)c2)cc1

> <ID>
CHEMBL7111

> <standard_value>
36700

> <IC50_uM>
36.7

> <Activity>
No

> <pIC50>
4.435333936

> <BCI>
0

$$$$

  SciTegic03012415362D

 39 40  0  0  1  0            999 V2000
    3.2310  -17.7628    0.0000 C   0  0
    2.3519  -16.5475    0.0000 C   0  0
    2.9643  -15.1773    0.0000 C   0  0
    2.0846  -13.9613    0.0000 C   0  0
    2.6971  -12.5911    0.0000 C   0  0
    1.8174  -11.3750    0.0000 C   0  0
    2.4298  -10.0049    0.0000 C   0  0
    1.5502   -8.7888    0.0000 C   0  0
    2.1626   -7.4186    0.0000 C   0  0
    1.2830   -6.2026    0.0000 C   0  0
    1.8954   -4.8324    0.0000 C   0  0
    1.0157   -3.6164    0.0000 C   0  0
    1.6281   -2.2462    0.0000 C   0  0  1  0  0  0
    3.1202   -2.0921    0.0000 O   0  0
    0.7500   -1.0323    0.0000 C   0  0  1  0  0  0
    1.2135    0.3943    0.0000 C   0  0
    0.0000    1.2760    0.0000 C   0  0
   -1.2135    0.3943    0.0000 C   0  0  2  0  0  0
   -2.6391    0.8554    0.0000 C   0  0  2  0  0  0
   -3.7521   -0.1502    0.0000 O   0  0
   -2.9540    2.3228    0.0000 C   0  0
   -4.3820    2.7846    0.0000 C   0  0
   -4.6970    4.2520    0.0000 C   0  0
   -6.1249    4.7139    0.0000 C   0  0
   -6.4399    6.1813    0.0000 C   0  0
   -7.8679    6.6432    0.0000 C   0  0
   -8.1828    8.1106    0.0000 C   0  0
   -9.6108    8.5724    0.0000 C   0  0
   -9.9258   10.0398    0.0000 C   0  0
  -11.3537   10.5017    0.0000 C   0  0
  -11.6687   11.9691    0.0000 C   0  0
  -13.0967   12.4310    0.0000 C   0  0
  -13.4116   13.8984    0.0000 C   0  0
  -14.7773   14.4872    0.0000 C   0  0
  -14.6204   15.9790    0.0000 N   0  0
  -13.1532   16.2907    0.0000 N   0  0
  -12.5430   17.6610    0.0000 C   0  0
  -12.4033   14.9917    0.0000 C   0  0
   -0.7500   -1.0323    0.0000 O   0  0
  1  2  1  0
  2  3  1  0
  3  4  1  0
  4  5  1  0
  5  6  1  0
  6  7  1  0
  7  8  1  0
  8  9  1  0
  9 10  1  0
 10 11  1  0
 11 12  1  0
 12 13  1  0
 13 14  1  6
 13 15  1  0
 15 16  1  6
 16 17  1  0
 18 17  1  1
 18 19  1  0
 19 20  1  6
 19 21  1  0
 21 22  1  0
 22 23  1  0
 23 24  1  0
 24 25  1  0
 25 26  1  0
 26 27  1  0
 27 28  1  0
 28 29  1  0
 29 30  1  0
 30 31  1  0
 31 32  1  0
 32 33  1  0
 33 34  1  0
 34 35  2  0
 35 36  1  0
 36 37  1  0
 36 38  1  0
 38 33  2  0
 18 39  1  0
 39 15  1  0
M  END
> <Smiles>
CCCCCCCCCCCC[C@@H](O)[C@H]1CC[C@H]([C@H](O)CCCCCCCCCCCCc2cnn(C)c2)O1

> <ID>
CHEMBL253620

> <standard_value>
37000

> <IC50_uM>
37

> <Activity>
No

> <pIC50>
4.431798276

> <BCI>
0

$$$$

  SciTegic03012415362D

 29 31  0  0  1  0            999 V2000
    9.0029    3.0568    0.0000 C   0  0
    7.7685    2.2047    0.0000 O   0  0
    6.4121    2.8472    0.0000 C   0  0
    6.2910    4.3423    0.0000 O   0  0
    5.1770    1.9947    0.0000 C   0  0
    3.8206    2.6372    0.0000 S   0  0
    5.0547    3.4899    0.0000 O   0  0
    3.6995    4.1323    0.0000 O   0  0
    2.5792    1.7803    0.0000 C   0  0  2  0  0  0
    1.4564    2.7750    0.0000 C   0  0
    0.0000    3.1339    0.0000 C   0  0
    0.0000    4.6339    0.0000 O   0  0
   -1.4564    2.7750    0.0000 O   0  0
   -2.5792    1.7803    0.0000 C   0  0  1  0  0  0
   -3.8137    2.6324    0.0000 C   0  0
   -3.1111    0.3777    0.0000 C   0  0
   -2.9303   -1.1113    0.0000 C   0  0
   -2.0782   -2.3458    0.0000 C   0  0
   -0.7500   -3.0429    0.0000 C   0  0  3  0  0  0
    0.0000   -4.3424    0.0000 O   0  0
    0.7500   -3.0429    0.0000 C   0  0  3  0  0  0
    2.0782   -2.3458    0.0000 C   0  0  2  0  0  0
    2.9931   -3.5406    0.0000 C   0  0
    4.4081   -3.0427    0.0000 C   0  0  2  0  0  0
    5.6426   -3.8948    0.0000 O   0  0
    4.3719   -1.5431    0.0000 C   0  0
    2.9303   -1.1113    0.0000 C   0  0  1  0  0  0
    3.1111    0.3778    0.0000 C   0  0  2  0  0  0
    4.6002    0.5586    0.0000 O   0  0
  1  2  1  0
  2  3  1  0
  3  4  2  0
  3  5  1  0
  5  6  1  0
  6  7  2  0
  6  8  2  0
  9  6  1  1
  9 10  1  0
 10 11  1  0
 11 12  2  0
 11 13  1  0
 13 14  1  0
 14 15  1  6
 14 16  1  0
 16 17  1  0
 17 18  1  0
 19 18  1  4
 19 20  1  0
 21 20  1  4
 21 19  1  0
 21 22  1  0
 22 23  1  1
 23 24  1  0
 24 25  1  1
 24 26  1  0
 27 26  1  6
 27 22  1  0
 27 28  1  0
 28  9  1  0
 28 29  1  1
M  END
> <Smiles>
COC(=O)CS(=O)(=O)[C@@H]1CC(=O)O[C@@H](C)CCCC2OC2[C@@H]2C[C@H](O)C[C@H]2[C@@H]1O

> <ID>
CHEMBL323700

> <standard_value>
38000

> <IC50_uM>
38

> <Activity>
No

> <pIC50>
4.420216403

> <BCI>
0

$$$$

  SciTegic03012415362D

 44 49  0  0  0  0            999 V2000
    5.1937   -3.0093    0.0000 C   0  0
    3.8933   -3.7570    0.0000 N   0  0
    2.5951   -3.0039    0.0000 N   0  0
    2.5973   -1.5031    0.0000 N   0  0
    1.2990   -0.7500    0.0000 C   0  0
    1.2990    0.7500    0.0000 N   0  0
    0.0000    1.5000    0.0000 C   0  0
    0.0031    3.0008    0.0000 O   0  0
    1.3039    3.7494    0.0000 C   0  0
    1.3070    5.2502    0.0000 C   0  0
    2.6060    6.0003    0.0000 C   0  0
    2.6060    7.5003    0.0000 C   0  0
    1.3070    8.2503    0.0000 C   0  0
    0.0079    7.5003    0.0000 C   0  0
    0.0079    6.0003    0.0000 C   0  0
   -1.2990    0.7500    0.0000 C   0  0
   -2.7248    1.2135    0.0000 N   0  0
   -3.6065    0.0000    0.0000 C   0  0
   -2.7248   -1.2135    0.0000 N   0  0
   -1.2990   -0.7500    0.0000 C   0  0
    0.0000   -1.5000    0.0000 N   0  0
    3.8912   -5.2578    0.0000 C   0  0
    2.5909   -6.0056    0.0000 O   0  0
    5.1894   -6.0109    0.0000 N   0  0
    6.4897   -5.2632    0.0000 C   0  0
    5.1873   -7.5117    0.0000 N   0  0
    6.4855   -8.2648    0.0000 N   0  0
    6.4833   -9.7656    0.0000 C   0  0
    7.7798  -10.5202    0.0000 N   0  0
    7.7746  -12.0202    0.0000 C   0  0
    9.0733  -12.7724    0.0000 O   0  0
   10.3746  -12.0247    0.0000 C   0  0
   11.6733  -12.7769    0.0000 C   0  0
   12.9749  -12.0314    0.0000 C   0  0
   14.2714  -12.7859    0.0000 C   0  0
   14.2662  -14.2859    0.0000 C   0  0
   12.9646  -15.0314    0.0000 C   0  0
   11.6682  -14.2770    0.0000 C   0  0
    6.4729  -12.7657    0.0000 C   0  0
    6.1564  -14.2311    0.0000 N   0  0
    4.6641  -14.3827    0.0000 C   0  0
    4.0588  -13.0103    0.0000 N   0  0
    5.1765  -12.0112    0.0000 C   0  0
    5.1817  -10.5112    0.0000 N   0  0
  1  2  1  0
  2  3  1  0
  3  4  2  0
  4  5  1  0
  5  6  2  0
  6  7  1  0
  7  8  1  0
  8  9  1  0
  9 10  1  0
 10 11  2  0
 11 12  1  0
 12 13  2  0
 13 14  1  0
 14 15  2  0
 15 10  1  0
  7 16  2  0
 16 17  1  0
 17 18  2  0
 18 19  1  0
 19 20  1  0
 20 16  1  0
 20 21  2  0
 21  5  1  0
  2 22  1  0
 22 23  2  0
 22 24  1  0
 24 25  1  0
 24 26  1  0
 26 27  2  0
 27 28  1  0
 28 29  2  0
 29 30  1  0
 30 31  1  0
 31 32  1  0
 32 33  1  0
 33 34  2  0
 34 35  1  0
 35 36  2  0
 36 37  1  0
 37 38  2  0
 38 33  1  0
 30 39  2  0
 39 40  1  0
 40 41  2  0
 41 42  1  0
 42 43  1  0
 43 39  1  0
 43 44  2  0
 44 28  1  0
M  END
> <Smiles>
CN(/N=N/c1nc(OCc2ccccc2)c2nc[nH]c2n1)C(=O)N(C)/N=N/c1nc(OCc2ccccc2)c2nc[nH]c2n1

> <ID>
CHEMBL223089

> <standard_value>
38018.94

> <IC50_uM>
38.01894

> <Activity>
No

> <pIC50>
4.419999996

> <BCI>
0

$$$$

  SciTegic03012415362D

 45 51  0  0  0  0            999 V2000
    3.8805   -1.4410    0.0000 C   0  0
    2.4133   -1.7530    0.0000 N   0  0
    1.2990   -0.7500    0.0000 C   0  0
    1.2990    0.7500    0.0000 C   0  0
    0.0000    1.5000    0.0000 C   0  0
   -1.2990    0.7500    0.0000 C   0  0
   -1.2990   -0.7500    0.0000 C   0  0
    0.0000   -1.5000    0.0000 C   0  0
    0.3114   -2.9665    0.0000 C   0  0
   -0.5701   -4.1788    0.0000 C   0  0
   -2.0618   -4.0217    0.0000 O   0  0
    0.0400   -5.5491    0.0000 N   0  0
   -0.8446   -6.7615    0.0000 C   0  0
   -2.3370   -6.6025    0.0000 C   0  0
   -3.2217   -7.8148    0.0000 C   0  0
   -4.7141   -7.6559    0.0000 C   0  0
   -5.3218   -6.2845    0.0000 O   0  0
   -5.5987   -8.8682    0.0000 N   0  0
   -7.0911   -8.7092    0.0000 C   0  0
   -7.6988   -7.3379    0.0000 O   0  0
   -7.9757   -9.9216    0.0000 N   0  0
   -9.4681   -9.7626    0.0000 C   0  0
  -10.3541  -10.9730    0.0000 C   0  0
  -11.8453  -10.8111    0.0000 C   0  0
  -12.4507   -9.4387    0.0000 C   0  0
  -11.5648   -8.2282    0.0000 C   0  0
  -10.0736   -8.3902    0.0000 C   0  0
   -4.9907  -10.2403    0.0000 C   0  0
   -5.8728  -11.4536    0.0000 C   0  0
   -5.2632  -12.8242    0.0000 C   0  0
   -3.7715  -12.9815    0.0000 C   0  0
   -2.8893  -11.7683    0.0000 C   0  0
   -3.4989  -10.3978    0.0000 C   0  0
    1.5318   -5.7059    0.0000 C   0  0
    2.4128   -6.9189    0.0000 C   0  0
    1.9489   -8.3462    0.0000 C   0  0
    0.5138   -8.7653    0.0000 C   0  0
    0.1589  -10.2227    0.0000 C   0  0
    1.2436  -11.2587    0.0000 C   0  0
    2.6832  -10.8374    0.0000 C   0  0
    3.0381   -9.3800    0.0000 C   0  0
    3.8394   -6.4554    0.0000 N   0  0
    3.8394   -4.9554    0.0000 N   0  0
    2.4135   -4.4923    0.0000 N   0  0
    1.8032   -3.1233    0.0000 C   0  0
  1  2  1  0
  2  3  1  0
  3  4  2  0
  4  5  1  0
  5  6  2  0
  6  7  1  0
  7  8  2  0
  8  3  1  0
  8  9  1  0
  9 10  1  0
 10 11  2  0
 10 12  1  0
 12 13  1  0
 13 14  1  0
 14 15  1  0
 15 16  1  0
 16 17  2  0
 16 18  1  0
 18 19  1  0
 19 20  2  0
 19 21  1  0
 21 22  1  0
 22 23  1  0
 23 24  1  0
 24 25  1  0
 25 26  1  0
 26 27  1  0
 27 22  1  0
 18 28  1  0
 28 29  1  0
 29 30  1  0
 30 31  1  0
 31 32  1  0
 32 33  1  0
 33 28  1  0
 12 34  1  0
 34 35  2  0
 35 36  1  0
 36 37  2  0
 37 38  1  0
 38 39  2  0
 39 40  1  0
 40 41  2  0
 41 36  1  0
 35 42  1  0
 42 43  2  0
 43 44  1  0
 44 34  1  0
 44 45  1  0
 45  9  2  0
 45  2  1  0
M  END
> <Smiles>
Cn1c2ccccc2c2c(=O)n(CCCC(=O)N(C(=O)NC3CCCCC3)C3CCCCC3)c3c(-c4ccccc4)nnn3c21

> <ID>
CHEMBL260681

> <standard_value>
38018.94

> <IC50_uM>
38.01894

> <Activity>
No

> <pIC50>
4.419999996

> <BCI>
0

$$$$

  SciTegic03012415362D

 23 24  0  0  0  0            999 V2000
    2.5951   -3.0031    0.0000 C   0  0
    2.5973   -1.5031    0.0000 O   0  0
    1.2990   -0.7500    0.0000 C   0  0
    1.2990    0.7500    0.0000 C   0  0
    0.0000    1.5000    0.0000 C   0  0
   -1.2990    0.7500    0.0000 C   0  0
   -2.5973    1.5031    0.0000 O   0  0
   -2.5951    3.0031    0.0000 C   0  0
   -1.2990   -0.7500    0.0000 C   0  0
   -2.5988   -1.5004    0.0000 C   0  0
   -3.8985   -2.2508    0.0000 C   0  0
   -5.1983   -3.0013    0.0000 C   0  0
   -5.1983   -4.5013    0.0000 C   0  0
   -6.4973   -5.2513    0.0000 C   0  0
   -7.7964   -4.5013    0.0000 C   0  0
   -9.0946   -5.2544    0.0000 O   0  0
   -9.0924   -6.7544    0.0000 C   0  0
   -7.7964   -3.0013    0.0000 C   0  0
   -9.0946   -2.2482    0.0000 C   0  0
   -9.0924   -0.7482    0.0000 O   0  0
  -10.3949   -2.9959    0.0000 O   0  0
   -6.4973   -2.2513    0.0000 C   0  0
    0.0000   -1.5000    0.0000 C   0  0
  1  2  1  0
  2  3  1  0
  3  4  2  0
  4  5  1  0
  5  6  2  0
  6  7  1  0
  7  8  1  0
  6  9  1  0
  9 10  1  0
 10 11  3  0
 11 12  1  0
 12 13  2  0
 13 14  1  0
 14 15  2  0
 15 16  1  0
 16 17  1  0
 15 18  1  0
 18 19  1  0
 19 20  2  0
 19 21  1  0
 18 22  2  0
 22 12  1  0
  9 23  2  0
 23  3  1  0
M  END
> <Smiles>
COc1ccc(OC)c(C#Cc2ccc(OC)c(C(=O)O)c2)c1

> <ID>
CHEMBL45347

> <standard_value>
38500

> <IC50_uM>
38.5

> <Activity>
No

> <pIC50>
4.41453927

> <BCI>
0

$$$$

  SciTegic03012415362D

 34 37  0  0  0  0            999 V2000
    3.8983   -0.7459    0.0000 C   0  0
    2.6003   -1.4977    0.0000 O   0  0
    1.2990   -0.7500    0.0000 C   0  0
    1.2990    0.7500    0.0000 C   0  0
    0.0000    1.5000    0.0000 C   0  0
   -1.2990    0.7500    0.0000 C   0  0
   -1.2990   -0.7500    0.0000 C   0  0
   -2.5972   -1.5031    0.0000 O   0  0
   -2.5951   -3.0031    0.0000 C   0  0
    0.0000   -1.5000    0.0000 C   0  0
    0.0031   -3.0008    0.0000 O   0  0
    1.3032   -3.7490    0.0000 C   0  0
   -2.4133    1.7530    0.0000 C   0  0
   -3.8805    1.4410    0.0000 O   0  0
   -1.8032    3.1233    0.0000 C   0  0
   -0.3115    2.9665    0.0000 C   0  0
    0.5701    4.1788    0.0000 N   0  0
    2.0630    4.0244    0.0000 C   0  0
    2.9439    5.2395    0.0000 C   0  0
    4.4367    5.0850    0.0000 C   0  0
    5.3177    6.3001    0.0000 N   0  0
    6.8105    6.1457    0.0000 N   0  3
    8.3026    5.9914    0.0000 N   0  5
   -0.0400    5.5491    0.0000 C   0  0
    0.8416    6.7626    0.0000 O   0  0
   -1.5318    5.7059    0.0000 C   0  0
   -2.1419    7.0762    0.0000 C   0  0
   -3.6337    7.2330    0.0000 C   0  0
   -4.2470    8.6028    0.0000 N   0  3
   -5.7390    8.7574    0.0000 O   0  0
   -3.3674    9.8179    0.0000 O   0  5
   -4.5154    6.0194    0.0000 C   0  0
   -3.9053    4.6491    0.0000 C   0  0
   -2.4135    4.4923    0.0000 C   0  0
  1  2  1  0
  2  3  1  0
  3  4  2  0
  4  5  1  0
  5  6  2  0
  6  7  1  0
  7  8  1  0
  8  9  1  0
  7 10  2  0
 10  3  1  0
 10 11  1  0
 11 12  1  0
  6 13  1  0
 13 14  2  0
 13 15  1  0
 15 16  2  0
 16  5  1  0
 16 17  1  0
 17 18  1  0
 18 19  1  0
 19 20  1  0
 20 21  1  0
 21 22  2  0
 22 23  2  0
 17 24  1  0
 24 25  2  0
 24 26  1  0
 26 27  2  0
 27 28  1  0
 28 29  1  0
 29 30  2  0
 29 31  1  0
 28 32  2  0
 32 33  1  0
 33 34  2  0
 34 15  1  0
 34 26  1  0
M  CHG  4  22   1  23  -1  29   1  31  -1
M  END
> <Smiles>
COc1cc2c(c(OC)c1OC)C(=O)c1c-2n(CCCN=[N+]=[N-])c(=O)c2cc([N+](=O)[O-])ccc12

> <ID>
CHEMBL216100

> <standard_value>
38900

> <IC50_uM>
38.9

> <Activity>
No

> <pIC50>
4.410050399

> <BCI>
0

$$$$

  SciTegic03012415362D

 32 35  0  0  0  0            999 V2000
    3.8983   -0.7459    0.0000 C   0  0
    2.6003   -1.4977    0.0000 O   0  0
    1.2990   -0.7500    0.0000 C   0  0
    1.2990    0.7500    0.0000 C   0  0
    0.0000    1.5000    0.0000 C   0  0
    0.0000    3.0000    0.0000 C   0  0
   -1.2991    3.7500    0.0000 C   0  0
   -2.5981    3.0000    0.0000 N   0  0
   -3.8994    3.7477    0.0000 C   0  0
   -5.1981    2.9954    0.0000 C   0  0
   -6.4994    3.7432    0.0000 C   0  0
   -7.7981    2.9909    0.0000 N   0  0
   -9.0994    3.7386    0.0000 N   0  3
  -10.3999    4.4859    0.0000 N   0  5
   -2.5981    1.5000    0.0000 C   0  0
   -3.8971    0.7500    0.0000 O   0  0
   -1.2990    0.7500    0.0000 C   0  0
   -1.2990   -0.7500    0.0000 C   0  0
    0.0000   -1.5000    0.0000 C   0  0
   -0.0031   -3.0008    0.0000 O   0  0
   -1.3032   -3.7490    0.0000 C   0  0
   -0.9876    5.2165    0.0000 C   0  0
   -1.8692    6.4288    0.0000 C   0  0
   -1.2591    7.7991    0.0000 C   0  0
    0.2327    7.9559    0.0000 C   0  0
    0.8460    9.3257    0.0000 N   0  3
    2.3380    9.4804    0.0000 O   0  0
   -0.0336   10.5408    0.0000 O   0  5
    1.1144    6.7424    0.0000 C   0  0
    0.5042    5.3733    0.0000 C   0  0
    1.1143    4.0030    0.0000 C   0  0
    2.5815    3.6910    0.0000 O   0  0
  1  2  1  0
  2  3  1  0
  3  4  2  0
  4  5  1  0
  5  6  1  0
  6  7  2  0
  7  8  1  0
  8  9  1  0
  9 10  1  0
 10 11  1  0
 11 12  1  0
 12 13  2  0
 13 14  2  0
  8 15  1  0
 15 16  2  0
 15 17  1  0
 17  5  2  0
 17 18  1  0
 18 19  2  0
 19  3  1  0
 19 20  1  0
 20 21  1  0
  7 22  1  0
 22 23  2  0
 23 24  1  0
 24 25  2  0
 25 26  1  0
 26 27  2  0
 26 28  1  0
 25 29  1  0
 29 30  2  0
 30 22  1  0
 30 31  1  0
 31  6  1  0
 31 32  2  0
M  CHG  4  13   1  14  -1  26   1  28  -1
M  END
> <Smiles>
COc1cc2c3c(n(CCCN=[N+]=[N-])c(=O)c2cc1OC)-c1ccc([N+](=O)[O-])cc1C3=O

> <ID>
CHEMBL230423

> <standard_value>
38900

> <IC50_uM>
38.9

> <Activity>
No

> <pIC50>
4.410050399

> <BCI>
0

$$$$

  SciTegic03012415362D

 40 45  0  0  0  0            999 V2000
    3.8983   -0.7459    0.0000 C   0  0
    2.6003   -1.4977    0.0000 O   0  0
    1.2990   -0.7500    0.0000 C   0  0
    1.2990    0.7500    0.0000 C   0  0
    0.0000    1.5000    0.0000 C   0  0
    0.0000    3.0000    0.0000 C   0  0
   -1.2991    3.7500    0.0000 C   0  0
   -2.5981    3.0000    0.0000 N   0  0
   -3.8971    3.7500    0.0000 C   0  0
   -2.5981    1.5000    0.0000 C   0  0
   -3.8971    0.7500    0.0000 O   0  0
   -1.2990    0.7500    0.0000 C   0  0
   -1.2990   -0.7500    0.0000 C   0  0
    0.0000   -1.5000    0.0000 C   0  0
   -0.0031   -3.0008    0.0000 O   0  0
   -1.3032   -3.7490    0.0000 C   0  0
   -0.9876    5.2165    0.0000 C   0  0
   -1.8692    6.4288    0.0000 C   0  0
   -1.2591    7.7991    0.0000 C   0  0
   -2.1438    9.0115    0.0000 O   0  0
   -3.6361    8.8525    0.0000 C   0  0
   -4.5208   10.0648    0.0000 C   0  0
   -6.0126    9.9081    0.0000 C   0  0
   -6.8943   11.1216    0.0000 C   0  0
   -6.2843   12.4919    0.0000 C   0  0
   -4.7925   12.6487    0.0000 C   0  0
   -3.9108   11.4352    0.0000 C   0  0
    0.2327    7.9559    0.0000 C   0  0
    0.8460    9.3257    0.0000 O   0  0
    2.3388    9.4805    0.0000 C   0  0
    2.9520   10.8503    0.0000 C   0  0
    4.4438   11.0071    0.0000 C   0  0
    5.0540   12.3775    0.0000 C   0  0
    4.1723   13.5910    0.0000 C   0  0
    2.6805   13.4342    0.0000 C   0  0
    2.0704   12.0639    0.0000 C   0  0
    1.1144    6.7424    0.0000 C   0  0
    0.5042    5.3733    0.0000 C   0  0
    1.1143    4.0030    0.0000 C   0  0
    2.5815    3.6910    0.0000 O   0  0
  1  2  1  0
  2  3  1  0
  3  4  2  0
  4  5  1  0
  5  6  1  0
  6  7  2  0
  7  8  1  0
  8  9  1  0
  8 10  1  0
 10 11  2  0
 10 12  1  0
 12  5  2  0
 12 13  1  0
 13 14  2  0
 14  3  1  0
 14 15  1  0
 15 16  1  0
  7 17  1  0
 17 18  2  0
 18 19  1  0
 19 20  1  0
 20 21  1  0
 21 22  1  0
 22 23  2  0
 23 24  1  0
 24 25  2  0
 25 26  1  0
 26 27  2  0
 27 22  1  0
 19 28  2  0
 28 29  1  0
 29 30  1  0
 30 31  1  0
 31 32  2  0
 32 33  1  0
 33 34  2  0
 34 35  1  0
 35 36  2  0
 36 31  1  0
 28 37  1  0
 37 38  2  0
 38 17  1  0
 38 39  1  0
 39  6  1  0
 39 40  2  0
M  END
> <Smiles>
COc1cc2c3c(n(C)c(=O)c2cc1OC)-c1cc(OCc2ccccc2)c(OCc2ccccc2)cc1C3=O

> <ID>
CHEMBL141900

> <standard_value>
39000

> <IC50_uM>
39

> <Activity>
No

> <pIC50>
4.408935393

> <BCI>
0

$$$$

  SciTegic03012415362D

 26 29  0  0  0  0            999 V2000
    1.3689    6.1679    0.0000 F   0  0
    2.4537    5.1320    0.0000 C   0  0
    2.0990    3.6745    0.0000 C   0  0
    3.1884    2.6409    0.0000 C   0  0
    2.7248    1.2135    0.0000 C   0  0
    3.6065    0.0000    0.0000 N   0  0
    2.7248   -1.2135    0.0000 N   0  0
    1.2990   -0.7500    0.0000 C   0  0
    1.2990    0.7500    0.0000 N   0  0
    0.0000    1.5000    0.0000 N   0  0
   -1.2990    0.7500    0.0000 C   0  0
   -2.5987    1.5004    0.0000 C   0  0
   -3.8967    0.7484    0.0000 C   0  0
   -5.1969    1.4963    0.0000 C   0  0
   -5.1993    2.9963    0.0000 C   0  0
   -6.4995    3.7442    0.0000 Cl  0  0
   -3.9014    3.7484    0.0000 C   0  0
   -2.6012    3.0004    0.0000 C   0  0
   -1.3034    3.7525    0.0000 Cl  0  0
   -1.2990   -0.7500    0.0000 C   0  0
    0.0000   -1.5000    0.0000 S   0  0
    4.6234    3.0602    0.0000 C   0  0
    5.7080    2.0239    0.0000 Cl  0  0
    4.9781    4.5176    0.0000 C   0  0
    3.8933    5.5535    0.0000 C   0  0
    4.2480    7.0110    0.0000 Cl  0  0
  1  2  1  0
  2  3  2  0
  3  4  1  0
  4  5  1  0
  5  6  2  0
  6  7  1  0
  7  8  2  0
  8  9  1  0
  9  5  1  0
  9 10  1  0
 10 11  2  0
 11 12  1  0
 12 13  2  0
 13 14  1  0
 14 15  2  0
 15 16  1  0
 15 17  1  0
 17 18  2  0
 18 12  1  0
 18 19  1  0
 11 20  1  0
 20 21  1  0
 21  8  1  0
  4 22  2  0
 22 23  1  0
 22 24  1  0
 24 25  2  0
 25  2  1  0
 25 26  1  0
M  END
> <Smiles>
Fc1cc(-c2nnc3n2N=C(c2ccc(Cl)cc2Cl)CS3)c(Cl)cc1Cl

> <ID>
CHEMBL578186

> <standard_value>
39200

> <IC50_uM>
39.2

> <Activity>
No

> <pIC50>
4.406713933

> <BCI>
0

$$$$

  SciTegic03012415362D

 22 25  0  0  0  0            999 V2000
    1.2990   -0.7500    0.0000 C   0  0
    1.2990    0.7500    0.0000 C   0  0
    0.0000    1.5000    0.0000 C   0  0
   -1.2990    0.7500    0.0000 C   0  0
   -2.5981    1.5000    0.0000 C   0  0
   -2.6012    3.0008    0.0000 N   0  0
   -3.9020    3.7494    0.0000 C   0  0
   -3.9051    5.2502    0.0000 C   0  0
   -5.2059    5.9987    0.0000 C   0  0
   -6.5553    5.3733    0.0000 C   0  0
   -7.5627    6.4846    0.0000 N   0  0
   -6.8172    7.7853    0.0000 C   0  0
   -7.2854    9.2104    0.0000 C   0  0
   -6.2854   10.3284    0.0000 C   0  0
   -4.8172   10.0214    0.0000 C   0  0
   -4.3489    8.5964    0.0000 C   0  0
   -5.3489    7.4783    0.0000 C   0  0
   -3.8971    0.7500    0.0000 N   0  0
   -3.8971   -0.7500    0.0000 C   0  0
   -2.5981   -1.5000    0.0000 N   0  0
   -1.2990   -0.7500    0.0000 C   0  0
    0.0000   -1.5000    0.0000 C   0  0
  1  2  2  0
  2  3  1  0
  3  4  2  0
  4  5  1  0
  5  6  1  0
  6  7  1  0
  7  8  1  0
  8  9  1  0
  9 10  2  0
 10 11  1  0
 11 12  1  0
 12 13  2  0
 13 14  1  0
 14 15  2  0
 15 16  1  0
 16 17  2  0
 17  9  1  0
 17 12  1  0
  5 18  2  0
 18 19  1  0
 19 20  2  0
 20 21  1  0
 21  4  1  0
 21 22  2  0
 22  1  1  0
M  END
> <Smiles>
c1ccc2c(NCCc3c[nH]c4ccccc34)ncnc2c1

> <ID>
CHEMBL2315720

> <standard_value>
39800

> <IC50_uM>
39.8

> <Activity>
No

> <pIC50>
4.400116928

> <BCI>
0

$$$$

  SciTegic03012415362D

 30 34  0  0  0  0            999 V2000
    2.5951   -3.0031    0.0000 C   0  0
    2.5973   -1.5031    0.0000 O   0  0
    1.2990   -0.7500    0.0000 C   0  0
    1.2990    0.7500    0.0000 C   0  0
    0.0000    1.5000    0.0000 C   0  0
   -1.2990    0.7500    0.0000 C   0  0
   -1.2990   -0.7500    0.0000 C   0  0
    0.0000   -1.5000    0.0000 C   0  0
   -2.7248   -1.2135    0.0000 C   0  0
   -3.1882   -2.6402    0.0000 O   0  0
   -3.6065    0.0000    0.0000 C   0  0
   -2.7248    1.2135    0.0000 C   0  0
   -3.3339    2.5831    0.0000 C   0  0
   -2.4537    3.7988    0.0000 N   0  0
   -3.0656    5.1692    0.0000 C   0  0
   -2.1876    6.3855    0.0000 C   0  0
   -2.8019    7.7539    0.0000 C   0  0
   -4.2942    7.9062    0.0000 C   0  0
   -4.9116    9.2741    0.0000 C   0  0
   -4.0358   10.4919    0.0000 C   0  0
   -6.4041    9.4242    0.0000 O   0  0
   -5.1722    6.6900    0.0000 C   0  0
   -4.5579    5.3215    0.0000 C   0  0
   -4.8257    2.7399    0.0000 N   0  0
   -5.7073    1.5263    0.0000 C   0  0
   -7.1991    1.6831    0.0000 C   0  0
   -8.0808    0.4696    0.0000 C   0  0
   -7.4707   -0.9007    0.0000 C   0  0
   -5.9789   -1.0575    0.0000 C   0  0
   -5.0972    0.1560    0.0000 C   0  0
  1  2  1  0
  2  3  1  0
  3  4  2  0
  4  5  1  0
  5  6  2  0
  6  7  1  0
  7  8  2  0
  8  3  1  0
  7  9  1  0
  9 10  2  0
  9 11  1  0
 11 12  2  0
 12  6  1  0
 12 13  1  0
 13 14  1  0
 14 15  1  0
 15 16  2  0
 16 17  1  0
 17 18  2  0
 18 19  1  0
 19 20  1  0
 19 21  2  0
 18 22  1  0
 22 23  2  0
 23 15  1  0
 13 24  2  0
 24 25  1  0
 25 26  2  0
 26 27  1  0
 27 28  2  0
 28 29  1  0
 29 30  2  0
 30 11  1  0
 30 25  1  0
M  END
> <Smiles>
COc1ccc2c(c1)C(=O)c1c-2c(Nc2ccc(C(C)=O)cc2)nc2ccccc12

> <ID>
CHEMBL2047435

> <standard_value>
39810

> <IC50_uM>
39.81

> <Activity>
No

> <pIC50>
4.400007822

> <BCI>
0

$$$$

  SciTegic03012415362D

 25 27  0  0  0  0            999 V2000
    3.8983   -0.7459    0.0000 C   0  0
    2.6003   -1.4977    0.0000 O   0  0
    1.2990   -0.7500    0.0000 C   0  0
    1.2990    0.7500    0.0000 C   0  0
    0.0000    1.5000    0.0000 C   0  0
   -1.2990    0.7500    0.0000 C   0  0
   -2.5987    1.5004    0.0000 N   0  0
   -3.9492    0.8772    0.0000 C   0  0
   -4.9546    1.9903    0.0000 C   0  0
   -6.4469    1.8311    0.0000 C   0  0
   -7.1532    0.5134    0.0000 C   0  0
   -8.6524    0.4669    0.0000 C   0  0
   -9.4423    1.7421    0.0000 C   0  0
  -10.9423    1.6925    0.0000 O   0  0
  -11.6499    0.3698    0.0000 C   0  0
   -8.7329    3.0637    0.0000 C   0  0
   -9.5206    4.3412    0.0000 O   0  0
   -8.8094    5.6619    0.0000 C   0  0
   -7.2337    3.1102    0.0000 C   0  0
   -4.2067    3.2905    0.0000 N   0  0
   -2.7390    2.9810    0.0000 C   0  0
   -1.6199    3.9798    0.0000 S   0  0
   -1.2990   -0.7500    0.0000 C   0  0
    0.0000   -1.5000    0.0000 C   0  0
    0.0000   -3.0000    0.0000 Cl  0  0
  1  2  1  0
  2  3  1  0
  3  4  2  0
  4  5  1  0
  5  6  2  0
  6  7  1  0
  7  8  1  0
  8  9  2  0
  9 10  1  0
 10 11  2  0
 11 12  1  0
 12 13  2  0
 13 14  1  0
 14 15  1  0
 13 16  1  0
 16 17  1  0
 17 18  1  0
 16 19  2  0
 19 10  1  0
  9 20  1  0
 20 21  1  0
 21  7  1  0
 21 22  2  0
  6 23  1  0
 23 24  2  0
 24  3  1  0
 24 25  1  0
M  END
> <Smiles>
COc1ccc(-n2cc(-c3ccc(OC)c(OC)c3)[nH]c2=S)cc1Cl

> <ID>
CHEMBL251894

> <standard_value>
39810.72

> <IC50_uM>
39.81072

> <Activity>
No

> <pIC50>
4.399999968

> <BCI>
0

$$$$

  SciTegic03012415362D

 25 28  0  0  0  0            999 V2000
   -1.9073   -6.1399    0.0000 N   0  0
   -0.6056   -5.3944    0.0000 C   0  0
    0.7625   -6.0093    0.0000 N   0  0
    1.7701   -4.8981    0.0000 C   0  0
    3.2623   -5.0513    0.0000 O   0  0
    1.0157   -3.6164    0.0000 C   0  0
    1.6281   -2.2462    0.0000 C   0  0
    0.7500   -1.0323    0.0000 C   0  0
    1.2135    0.3943    0.0000 N   0  0
    0.0000    1.2760    0.0000 N   0  0
   -0.4623    2.7009    0.0000 C   0  0
    0.4164    3.9144    0.0000 C   0  0
   -0.1953    5.2849    0.0000 O   0  0
    0.6849    6.5005    0.0000 C   0  0
    0.0755    7.8711    0.0000 C   0  0
    0.9577    9.0842    0.0000 C   0  0
    2.4494    8.9268    0.0000 C   0  0
    3.3317   10.1399    0.0000 Cl  0  0
    3.0589    7.5562    0.0000 C   0  0
    2.1767    6.3431    0.0000 C   0  0
   -1.9623    2.7008    0.0000 N   0  0
   -2.4258    1.2743    0.0000 N   0  0
   -1.2135    0.3943    0.0000 C   0  0
   -0.7500   -1.0323    0.0000 S   0  0
   -0.4436   -3.9032    0.0000 S   0  0
  1  2  1  0
  2  3  2  0
  3  4  1  0
  4  5  1  0
  4  6  2  0
  6  7  1  0
  7  8  1  0
  8  9  2  0
  9 10  1  0
 10 11  1  0
 11 12  1  0
 12 13  1  0
 13 14  1  0
 14 15  2  0
 15 16  1  0
 16 17  2  0
 17 18  1  0
 17 19  1  0
 19 20  2  0
 20 14  1  0
 11 21  2  0
 21 22  1  0
 22 23  2  0
 23 10  1  0
 23 24  1  0
 24  8  1  0
  6 25  1  0
 25  2  1  0
M  END
> <Smiles>
Nc1nc(O)c(Cc2nn3c(COc4ccc(Cl)cc4)nnc3s2)s1

> <ID>
CHEMBL559301

> <standard_value>
39810.72

> <IC50_uM>
39.81072

> <Activity>
No

> <pIC50>
4.399999968

> <BCI>
0

$$$$

  SciTegic03012415362D

 32 36  0  0  0  0            999 V2000
    3.8983   -0.7459    0.0000 C   0  0
    2.6003   -1.4977    0.0000 O   0  0
    1.2990   -0.7500    0.0000 C   0  0
    1.2990    0.7500    0.0000 C   0  0
    0.0000    1.5000    0.0000 C   0  0
    0.0000    3.0000    0.0000 C   0  0
   -1.2991    3.7500    0.0000 C   0  0
   -2.5981    3.0000    0.0000 N   0  0
   -3.8994    3.7477    0.0000 C   0  0
   -5.1981    2.9954    0.0000 C   0  0
   -6.4994    3.7432    0.0000 C   0  0
   -7.7981    2.9909    0.0000 N   0  0
   -9.0998    3.7363    0.0000 C   0  0
  -10.3962    2.9818    0.0000 C   0  0
  -10.3910    1.4818    0.0000 O   0  0
   -9.0894    0.7363    0.0000 C   0  0
   -7.7929    1.4908    0.0000 C   0  0
   -2.5981    1.5000    0.0000 C   0  0
   -3.8971    0.7500    0.0000 O   0  0
   -1.2990    0.7500    0.0000 C   0  0
   -1.2990   -0.7500    0.0000 C   0  0
    0.0000   -1.5000    0.0000 C   0  0
   -0.0031   -3.0008    0.0000 O   0  0
   -1.3032   -3.7490    0.0000 C   0  0
   -0.9876    5.2165    0.0000 C   0  0
   -1.8692    6.4288    0.0000 C   0  0
   -1.2591    7.7991    0.0000 N   0  0
    0.2327    7.9559    0.0000 C   0  0
    1.1144    6.7424    0.0000 C   0  0
    0.5042    5.3733    0.0000 C   0  0
    1.1143    4.0030    0.0000 C   0  0
    2.5815    3.6910    0.0000 O   0  0
  1  2  1  0
  2  3  1  0
  3  4  2  0
  4  5  1  0
  5  6  1  0
  6  7  2  0
  7  8  1  0
  8  9  1  0
  9 10  1  0
 10 11  1  0
 11 12  1  0
 12 13  1  0
 13 14  1  0
 14 15  1  0
 15 16  1  0
 16 17  1  0
 17 12  1  0
  8 18  1  0
 18 19  2  0
 18 20  1  0
 20  5  2  0
 20 21  1  0
 21 22  2  0
 22  3  1  0
 22 23  1  0
 23 24  1  0
  7 25  1  0
 25 26  2  0
 26 27  1  0
 27 28  2  0
 28 29  1  0
 29 30  2  0
 30 25  1  0
 30 31  1  0
 31  6  1  0
 31 32  2  0
M  END
> <Smiles>
COc1cc2c3c(n(CCCN4CCOCC4)c(=O)c2cc1OC)-c1cnccc1C3=O.O=C(O)C(F)(F)F

> <ID>
CHEMBL2024276

> <standard_value>
40000

> <IC50_uM>
40

> <Activity>
No

> <pIC50>
4.397940009

> <BCI>
0

> <RemovedSalts>
OC(=O)C(F)(F)F

$$$$

  SciTegic03012415362D

 30 34  0  0  0  0            999 V2000
    3.8983   -0.7459    0.0000 C   0  0
    2.6003   -1.4977    0.0000 O   0  0
    1.2990   -0.7500    0.0000 C   0  0
    1.2990    0.7500    0.0000 C   0  0
    0.0000    1.5000    0.0000 C   0  0
    0.0000    3.0000    0.0000 C   0  0
   -1.2991    3.7500    0.0000 C   0  0
   -2.5981    3.0000    0.0000 N   0  0
   -3.8994    3.7477    0.0000 C   0  0
   -5.1981    2.9954    0.0000 C   0  0
   -6.4994    3.7432    0.0000 C   0  0
   -7.7973    2.9913    0.0000 Cl  0  0
   -2.5981    1.5000    0.0000 C   0  0
   -3.8971    0.7500    0.0000 O   0  0
   -1.2990    0.7500    0.0000 C   0  0
   -1.2990   -0.7500    0.0000 C   0  0
    0.0000   -1.5000    0.0000 C   0  0
   -0.0031   -3.0008    0.0000 O   0  0
   -1.3032   -3.7490    0.0000 C   0  0
   -0.9876    5.2165    0.0000 C   0  0
   -1.8692    6.4288    0.0000 C   0  0
   -1.2591    7.7991    0.0000 C   0  0
    0.2327    7.9559    0.0000 C   0  0
    1.1144    6.7424    0.0000 C   0  0
    0.5042    5.3733    0.0000 C   0  0
    1.1143    4.0030    0.0000 C   0  0
    2.5815    3.6910    0.0000 O   0  0
    0.5446    9.4223    0.0000 O   0  0
   -0.7544   10.1723    0.0000 C   0  0
   -1.8691    9.1686    0.0000 O   0  0
  1  2  1  0
  2  3  1  0
  3  4  2  0
  4  5  1  0
  5  6  1  0
  6  7  2  0
  7  8  1  0
  8  9  1  0
  9 10  1  0
 10 11  1  0
 11 12  1  0
  8 13  1  0
 13 14  2  0
 13 15  1  0
 15  5  2  0
 15 16  1  0
 16 17  2  0
 17  3  1  0
 17 18  1  0
 18 19  1  0
  7 20  1  0
 20 21  2  0
 21 22  1  0
 22 23  2  0
 23 24  1  0
 24 25  2  0
 25 20  1  0
 25 26  1  0
 26  6  1  0
 26 27  2  0
 23 28  1  0
 28 29  1  0
 29 30  1  0
 30 22  1  0
M  END
> <Smiles>
COc1cc2c3c(n(CCCCl)c(=O)c2cc1OC)-c1cc2c(cc1C3=O)OCO2

> <ID>
CHEMBL331977

> <standard_value>
40700

> <IC50_uM>
40.7

> <Activity>
No

> <pIC50>
4.390405591

> <BCI>
0

$$$$

  SciTegic03012415362D

 39 40  0  0  1  0            999 V2000
   26.2659  -26.3444    0.0000 C   0  0
   25.3818  -25.1327    0.0000 C   0  0
   23.8894  -25.2916    0.0000 C   0  0
   23.0048  -24.0792    0.0000 C   0  0
   21.5124  -24.2381    0.0000 C   0  0
   20.6278  -23.0257    0.0000 C   0  0
   19.1354  -23.1846    0.0000 C   0  0
   18.2508  -21.9722    0.0000 C   0  0
   16.7584  -22.1312    0.0000 C   0  0
   15.8738  -20.9187    0.0000 C   0  0
   14.3815  -21.0777    0.0000 C   0  0
   13.4969  -19.8653    0.0000 C   0  0
   12.0045  -20.0242    0.0000 C   0  0  1  0  0  0
   11.3967  -21.3955    0.0000 O   0  0
   11.1214  -18.8138    0.0000 C   0  0  1  0  0  0
    9.6214  -18.8137    0.0000 C   0  0
    9.1580  -17.3871    0.0000 C   0  0
   10.3716  -16.5273    0.0000 C   0  0  2  0  0  0
   10.3737  -15.0265    0.0000 C   0  0  2  0  0  0
   11.6740  -14.2788    0.0000 O   0  0
    9.0755  -14.2734    0.0000 C   0  0
    9.0776  -12.7726    0.0000 C   0  0
    7.7794  -12.0195    0.0000 C   0  0
    7.7815  -10.5187    0.0000 C   0  0
    6.4833   -9.7656    0.0000 C   0  0
    6.4855   -8.2648    0.0000 C   0  0
    5.1873   -7.5117    0.0000 C   0  0
    5.1894   -6.0109    0.0000 C   0  0
    3.8912   -5.2578    0.0000 C   0  0
    3.8933   -3.7570    0.0000 C   0  0
    2.5951   -3.0039    0.0000 C   0  0
    2.5973   -1.5031    0.0000 C   0  0
    1.2990   -0.7500    0.0000 C   0  0
    1.2990    0.7500    0.0000 N   0  0
    0.0000    1.5000    0.0000 C   0  0
   -1.2990    0.7500    0.0000 C   0  0
   -1.2990   -0.7500    0.0000 C   0  0
    0.0000   -1.5000    0.0000 N   0  0
   11.5850  -17.3873    0.0000 O   0  0
  1  2  1  0
  2  3  1  0
  3  4  1  0
  4  5  1  0
  5  6  1  0
  6  7  1  0
  7  8  1  0
  8  9  1  0
  9 10  1  0
 10 11  1  0
 11 12  1  0
 12 13  1  0
 13 14  1  1
 13 15  1  0
 15 16  1  1
 16 17  1  0
 18 17  1  6
 18 19  1  0
 19 20  1  1
 19 21  1  0
 21 22  1  0
 22 23  1  0
 23 24  1  0
 24 25  1  0
 25 26  1  0
 26 27  1  0
 27 28  1  0
 28 29  1  0
 29 30  1  0
 30 31  1  0
 31 32  1  0
 32 33  1  0
 33 34  2  0
 34 35  1  0
 35 36  2  0
 36 37  1  0
 37 38  2  0
 38 33  1  0
 18 39  1  0
 39 15  1  0
M  END
> <Smiles>
CCCCCCCCCCCC[C@@H](O)[C@H]1CC[C@H]([C@H](O)CCCCCCCCCCCCc2ncccn2)O1

> <ID>
CHEMBL254882

> <standard_value>
41000

> <IC50_uM>
41

> <Activity>
No

> <pIC50>
4.387216143

> <BCI>
0

$$$$

  SciTegic03012415362D

 41 47  0  0  0  0            999 V2000
   13.2236  -11.4271    0.0000 O   0  0
   12.5707  -10.0766    0.0000 C   0  0
   13.2794   -8.7546    0.0000 C   0  0
   12.2412   -7.6720    0.0000 S   0  0
   10.9100   -8.3353    0.0000 C   0  0
    9.5887   -7.6234    0.0000 N   0  0
    9.5437   -6.1233    0.0000 S   0  0
   10.8198   -5.3350    0.0000 O   0  0
   10.8645   -6.8341    0.0000 O   0  0
    8.2224   -5.4114    0.0000 C   0  0
    8.1783   -3.9120    0.0000 C   0  0
    6.8578   -3.2005    0.0000 C   0  0
    5.5861   -3.9865    0.0000 C   0  0
    4.2151   -3.3761    0.0000 N   0  0
    3.9032   -1.9089    0.0000 N   0  0
    2.4133   -1.7530    0.0000 C   0  0
    1.2990   -0.7500    0.0000 C   0  0
    1.2990    0.7500    0.0000 C   0  0
    0.0000    1.5000    0.0000 C   0  0
   -1.2990    0.7500    0.0000 C   0  0
   -1.2990   -0.7500    0.0000 C   0  0
    0.0000   -1.5000    0.0000 C   0  0
    0.3114   -2.9665    0.0000 C   0  0
    1.8032   -3.1233    0.0000 C   0  0  3  0  0  0
    2.9160   -4.1261    0.0000 C   0  0  3  0  0  0
    2.7588   -5.6186    0.0000 C   0  0
    1.5265   -6.4428    0.0000 C   0  0
    1.9521   -7.8811    0.0000 C   0  0
    3.4516   -7.9208    0.0000 C   0  0
    3.9527   -6.5070    0.0000 S   0  0
    5.6255   -5.4877    0.0000 C   0  0
    6.9460   -6.1992    0.0000 C   0  0
   11.0944   -9.8111    0.0000 N   0  0
   10.0073  -10.8420    0.0000 C   0  0
    8.5693  -10.4150    0.0000 O   0  0
   10.3562  -12.3017    0.0000 C   0  0
    9.2693  -13.3355    0.0000 C   0  0
    9.6210  -14.7937    0.0000 C   0  0
   11.0597  -15.2181    0.0000 C   0  0
   12.1466  -14.1845    0.0000 C   0  0
   11.7949  -12.7263    0.0000 C   0  0
  1  2  2  0
  2  3  1  0
  3  4  1  0
  4  5  1  0
  5  6  2  0
  6  7  1  0
  7  8  2  0
  7  9  2  0
  7 10  1  0
 10 11  2  0
 11 12  1  0
 12 13  2  0
 13 14  1  0
 14 15  1  0
 15 16  2  0
 16 17  1  0
 17 18  2  0
 18 19  1  0
 19 20  2  0
 20 21  1  0
 21 22  2  0
 22 17  1  0
 22 23  1  0
 24 23  1  4
 24 16  1  0
 24 25  1  0
 25 14  1  0
 25 26  1  4
 26 27  2  0
 27 28  1  0
 28 29  2  0
 29 30  1  0
 30 26  1  0
 13 31  1  0
 31 32  2  0
 32 10  1  0
  5 33  1  0
 33  2  1  0
 33 34  1  0
 34 35  2  0
 34 36  1  0
 36 37  2  0
 37 38  1  0
 38 39  2  0
 39 40  1  0
 40 41  2  0
 41 36  1  0
M  END
> <Smiles>
O=C1CS/C(=N\S(=O)(=O)c2ccc(N3N=C4c5ccccc5CC4C3c3cccs3)cc2)N1C(=O)c1ccccc1

> <ID>
CHEMBL2263484

> <standard_value>
44600

> <IC50_uM>
44.6

> <Activity>
No

> <pIC50>
4.350665141

> <BCI>
0

$$$$

  SciTegic03012415362D

 39 41  0  0  1  0            999 V2000
   -0.1126   -2.9000    0.0000 C   0  0
   -0.1200   -1.4000    0.0000 C   0  0
   -1.4400   -0.6500    0.0000 C   0  0  1  0  0  0
   -2.7407   -1.3987    0.0000 O   0  0
   -2.7438   -2.8995    0.0000 C   0  0
   -1.4461   -3.6518    0.0000 C   0  0
   -4.0440   -3.6476    0.0000 O   0  0
   -1.4400    0.8300    0.0000 C   0  0
   -0.1200    1.5800    0.0000 C   0  0
    1.1700    0.8300    0.0000 C   0  0  1  0  0  0
    0.8567    2.2969    0.0000 C   0  0
    2.0400    2.0400    0.0000 C   0  0
    3.4000    2.5000    0.0000 C   0  0  2  0  0  0
    3.3626    4.0060    0.0000 O   0  0
    2.0448    4.7244    0.0000 C   0  0
    0.7648    3.9424    0.0000 C   0  0
    2.0071    6.2239    0.0000 O   0  0
    4.8200    2.0400    0.0000 C   0  0
    5.6900    0.8800    0.0000 C   0  0
    7.1130    1.3543    0.0000 C   0  0
    5.6900   -0.6900    0.0000 C   0  0
    4.8200   -1.8500    0.0000 C   0  0  2  0  0  0
    5.7136   -3.0632    0.0000 O   0  0
    7.2052   -2.8973    0.0000 C   0  0
    7.8066   -1.5231    0.0000 O   0  0
    8.0955   -4.1055    0.0000 C   0  0  3  0  0  0
    7.4942   -5.4797    0.0000 C   0  0
    9.5872   -3.9396    0.0000 C   0  0
   10.4770   -5.1471    0.0000 C   0  0
    3.4000   -2.3100    0.0000 C   0  0  1  0  0  0
    2.0400   -1.8500    0.0000 C   0  0  1  0  0  0
    1.1656   -3.0772    0.0000 O   0  0
    1.7882   -4.4428    0.0000 C   0  0
    3.2813   -4.5860    0.0000 C   0  0
    0.9180   -5.6647    0.0000 O   0  0
    1.1700   -0.6500    0.0000 C   0  0  2  0  0  0
    3.3800    0.0300    0.0000 C   0  0
    3.1196    1.5072    0.0000 C   0  0
    2.3169   -1.0283    0.0000 C   0  0
  1  2  2  0
  2  3  1  0
  3  4  1  1
  4  5  1  0
  5  6  1  0
  5  7  2  0
  3  8  1  0
  8  9  1  0
  9 10  1  0
 10 11  1  6
 10 12  1  0
 12 13  1  0
 13 14  1  6
 14 15  1  0
 15 16  1  0
 15 17  2  0
 13 18  1  0
 18 19  2  0
 19 20  1  0
 19 21  1  0
 21 22  1  0
 22 23  1  6
 23 24  1  0
 24 25  2  0
 24 26  1  0
 26 27  1  4
 26 28  1  0
 28 29  1  0
 22 30  1  0
 30 31  1  0
 31 32  1  1
 32 33  1  0
 33 34  1  0
 33 35  2  0
 31 36  1  0
 36  2  1  6
 36 10  1  0
 30 37  1  6
 37 18  1  0
 37 38  1  0
 37 39  1  0
M  END
> <Smiles>
C=C1[C@@H](OC(C)=O)CC[C@@]2(C)C[C@H](OC(C)=O)C3=C(C)C[C@H](OC(=O)C(C)CC)[C@@H]([C@@H](OC(C)=O)[C@H]12)C3(C)C

> <ID>
CHEMBL394387

> <standard_value>
44668.36

> <IC50_uM>
44.66836

> <Activity>
No

> <pIC50>
4.349999992

> <BCI>
0

$$$$

  SciTegic03012415362D

 27 30  0  0  0  0            999 V2000
    2.5951   -3.0031    0.0000 C   0  0
    2.5973   -1.5031    0.0000 O   0  0
    1.2990   -0.7500    0.0000 C   0  0
    1.2990    0.7500    0.0000 C   0  0
    0.0000    1.5000    0.0000 C   0  0
   -1.2990    0.7500    0.0000 C   0  0
   -1.2990   -0.7500    0.0000 C   0  0
    0.0000   -1.5000    0.0000 C   0  0
   -2.7248   -1.2135    0.0000 C   0  0
   -3.1882   -2.6402    0.0000 O   0  0
   -3.6065    0.0000    0.0000 C   0  0
   -2.7248    1.2135    0.0000 C   0  0
   -3.3339    2.5831    0.0000 N   0  0
   -2.4537    3.7988    0.0000 C   0  0
   -3.0656    5.1692    0.0000 C   0  0
   -2.1854    6.3848    0.0000 C   0  0
   -2.7972    7.7553    0.0000 N   0  0
   -1.9171    8.9709    0.0000 N   0  3
   -1.0374   10.1859    0.0000 N   0  5
   -4.8257    2.7399    0.0000 C   0  0
   -5.4358    4.1102    0.0000 O   0  0
   -5.7073    1.5263    0.0000 C   0  0
   -7.1991    1.6831    0.0000 C   0  0
   -8.0808    0.4696    0.0000 C   0  0
   -7.4707   -0.9007    0.0000 C   0  0
   -5.9789   -1.0575    0.0000 C   0  0
   -5.0972    0.1560    0.0000 C   0  0
  1  2  1  0
  2  3  1  0
  3  4  2  0
  4  5  1  0
  5  6  2  0
  6  7  1  0
  7  8  2  0
  8  3  1  0
  7  9  1  0
  9 10  2  0
  9 11  1  0
 11 12  2  0
 12  6  1  0
 12 13  1  0
 13 14  1  0
 14 15  1  0
 15 16  1  0
 16 17  1  0
 17 18  2  0
 18 19  2  0
 13 20  1  0
 20 21  2  0
 20 22  1  0
 22 23  2  0
 23 24  1  0
 24 25  2  0
 25 26  1  0
 26 27  2  0
 27 11  1  0
 27 22  1  0
M  CHG  2  18   1  19  -1
M  END
> <Smiles>
COc1ccc2c(c1)C(=O)c1c-2n(CCCN=[N+]=[N-])c(=O)c2ccccc12

> <ID>
CHEMBL242855

> <standard_value>
44700

> <IC50_uM>
44.7

> <Activity>
No

> <pIC50>
4.349692477

> <BCI>
0

$$$$

  SciTegic03012415362D

 19 21  0  0  0  0            999 V2000
    2.5532   -4.4223    0.0000 O   0  0
    1.8032   -3.1233    0.0000 C   0  0
    2.4133   -1.7530    0.0000 O   0  0
    1.2990   -0.7500    0.0000 C   0  0
    1.2990    0.7500    0.0000 C   0  0
    0.0000    1.5000    0.0000 C   0  0
   -1.2990    0.7500    0.0000 C   0  0
   -1.2990   -0.7500    0.0000 C   0  0
    0.0000   -1.5000    0.0000 C   0  0
    0.3114   -2.9665    0.0000 C   0  0
   -0.6890   -4.0818    0.0000 C   0  0
   -2.1578   -3.7735    0.0000 C   0  0
   -3.1610   -4.8886    0.0000 C   0  0
   -4.6284   -4.5775    0.0000 C   0  0
   -5.0926   -3.1511    0.0000 C   0  0
   -6.5600   -2.8399    0.0000 O   0  0
   -4.0895   -2.0359    0.0000 C   0  0
   -4.5537   -0.6095    0.0000 O   0  0
   -2.6221   -2.3471    0.0000 C   0  0
  1  2  2  0
  2  3  1  0
  3  4  1  0
  4  5  2  0
  5  6  1  0
  6  7  2  0
  7  8  1  0
  8  9  2  0
  9  4  1  0
  9 10  1  0
 10  2  1  0
 10 11  2  0
 11 12  1  0
 12 13  2  0
 13 14  1  0
 14 15  2  0
 15 16  1  0
 15 17  1  0
 17 18  1  0
 17 19  2  0
 19 12  1  0
M  END
> <Smiles>
O=C1Oc2ccccc2/C1=C\c1ccc(O)c(O)c1

> <ID>
CHEMBL195143

> <standard_value>
48000

> <IC50_uM>
48

> <Activity>
No

> <pIC50>
4.318758763

> <BCI>
0

$$$$

  SciTegic03012415362D

 27 31  0  0  1  0            999 V2000
    3.8983   -0.7459    0.0000 C   0  0
    2.6003   -1.4977    0.0000 C   0  0
    1.2990   -0.7500    0.0000 N   0  0
    1.2990    0.7500    0.0000 C   0  0
    0.0000    1.5000    0.0000 C   0  0
    0.0000    3.0000    0.0000 C   0  0
   -1.2991    3.7500    0.0000 C   0  0
   -1.2960    5.2508    0.0000 O   0  0
    0.0041    5.9990    0.0000 C   0  0
   -2.5981    3.0000    0.0000 C   0  0
   -3.8994    3.7477    0.0000 O   0  0
   -5.1974    2.9959    0.0000 C   0  0
   -2.5981    1.5000    0.0000 C   0  0
   -1.2990    0.7500    0.0000 C   0  0
   -1.2990   -0.7500    0.0000 C   0  0  2  0  0  0
    0.0000   -1.5000    0.0000 C   0  0  1  0  0  0
   -0.3114   -2.9665    0.0000 C   0  0
    0.5701   -4.1788    0.0000 C   0  0
   -0.0400   -5.5491    0.0000 C   0  0
   -1.5318   -5.7059    0.0000 C   0  0
   -2.4135   -4.4924    0.0000 C   0  0
   -1.8032   -3.1233    0.0000 C   0  0
   -2.4133   -1.7530    0.0000 C   0  0  2  0  0  0
   -3.8805   -1.4410    0.0000 O   0  0
   -1.8437   -7.1723    0.0000 O   0  0
   -0.5447   -7.9223    0.0000 C   0  0
    0.5700   -6.9186    0.0000 O   0  0
  1  2  1  0
  2  3  1  0
  3  4  1  0
  4  5  1  0
  5  6  2  0
  6  7  1  0
  7  8  1  0
  8  9  1  0
  7 10  2  0
 10 11  1  0
 11 12  1  0
 10 13  1  0
 13 14  2  0
 14  5  1  0
 15 14  1  6
 15 16  1  0
 16  3  1  6
 16 17  1  0
 17 18  2  0
 18 19  1  0
 19 20  2  0
 20 21  1  0
 21 22  2  0
 22 17  1  0
 22 23  1  0
 23 15  1  0
 23 24  1  6
 20 25  1  0
 25 26  1  0
 26 27  1  0
 27 19  1  0
M  END
> <Smiles>
CCN1Cc2cc(OC)c(OC)cc2[C@@H]2[C@H]1c1cc3c(cc1[C@@H]2O)OCO3

> <ID>
CHEMBL141927

> <standard_value>
50000

> <IC50_uM>
50

> <Activity>
No

> <pIC50>
4.301029996

> <BCI>
0

$$$$

  SciTegic03012415362D

 33 36  0  0  0  0            999 V2000
    3.8983   -0.7459    0.0000 C   0  0
    2.6003   -1.4977    0.0000 O   0  0
    1.2990   -0.7500    0.0000 C   0  0
    1.2990    0.7500    0.0000 C   0  0
    0.0000    1.5000    0.0000 C   0  0
    0.0000    3.0000    0.0000 C   0  0
   -1.2991    3.7500    0.0000 C   0  0
   -2.5981    3.0000    0.0000 N   0  0
   -3.8994    3.7477    0.0000 C   0  0
   -5.1981    2.9954    0.0000 C   0  0
   -6.4994    3.7432    0.0000 C   0  0
   -7.7981    2.9909    0.0000 N   0  0
   -9.0994    3.7386    0.0000 N   0  3
  -10.3999    4.4859    0.0000 N   0  5
   -2.5981    1.5000    0.0000 C   0  0
   -3.8971    0.7500    0.0000 O   0  0
   -1.2990    0.7500    0.0000 C   0  0
   -1.2990   -0.7500    0.0000 C   0  0
    0.0000   -1.5000    0.0000 C   0  0
   -0.0031   -3.0008    0.0000 O   0  0
   -1.3032   -3.7490    0.0000 C   0  0
   -0.9876    5.2165    0.0000 C   0  0
   -1.8692    6.4288    0.0000 C   0  0
   -1.2591    7.7991    0.0000 C   0  0
    0.2327    7.9559    0.0000 C   0  0
    0.8460    9.3257    0.0000 N   0  0
    2.3388    9.4805    0.0000 C   0  0
    3.2183    8.2654    0.0000 C   0  0
    2.9517   10.8495    0.0000 O   0  0
    1.1144    6.7424    0.0000 C   0  0
    0.5042    5.3733    0.0000 C   0  0
    1.1143    4.0030    0.0000 C   0  0
    2.5815    3.6910    0.0000 O   0  0
  1  2  1  0
  2  3  1  0
  3  4  2  0
  4  5  1  0
  5  6  1  0
  6  7  2  0
  7  8  1  0
  8  9  1  0
  9 10  1  0
 10 11  1  0
 11 12  1  0
 12 13  2  0
 13 14  2  0
  8 15  1  0
 15 16  2  0
 15 17  1  0
 17  5  2  0
 17 18  1  0
 18 19  2  0
 19  3  1  0
 19 20  1  0
 20 21  1  0
  7 22  1  0
 22 23  2  0
 23 24  1  0
 24 25  2  0
 25 26  1  0
 26 27  1  0
 27 28  1  0
 27 29  2  0
 25 30  1  0
 30 31  2  0
 31 22  1  0
 31 32  1  0
 32  6  1  0
 32 33  2  0
M  CHG  2  13   1  14  -1
M  END
> <Smiles>
COc1cc2c3c(n(CCCN=[N+]=[N-])c(=O)c2cc1OC)-c1ccc(NC(C)=O)cc1C3=O

> <ID>
CHEMBL390008

> <standard_value>
50100

> <IC50_uM>
50.1

> <Activity>
No

> <pIC50>
4.300162274

> <BCI>
0

$$$$

  SciTegic03012415362D

 36 40  0  0  0  0            999 V2000
    3.8805   -1.4410    0.0000 O   0  0
    2.4133   -1.7530    0.0000 C   0  0
    1.2990   -0.7500    0.0000 C   0  0
    1.2990    0.7500    0.0000 C   0  0
    0.0000    1.5000    0.0000 C   0  0
   -0.0031    3.0008    0.0000 O   0  0
   -1.3039    3.7494    0.0000 S   0  0
   -2.6017    2.9971    0.0000 O   0  0
   -1.3015    2.2494    0.0000 O   0  0
   -1.3070    5.2502    0.0000 C   0  0
   -2.6076    5.9975    0.0000 C   0  0
   -2.6107    7.4975    0.0000 C   0  0
   -1.3132    8.2502    0.0000 C   0  0
   -0.0126    7.5029    0.0000 C   0  0
   -0.0095    6.0029    0.0000 C   0  0
   -1.2990    0.7500    0.0000 C   0  0
   -1.2990   -0.7500    0.0000 C   0  0
    0.0000   -1.5000    0.0000 C   0  0
    0.3114   -2.9665    0.0000 C   0  0
    1.8032   -3.1233    0.0000 C   0  0
    2.4135   -4.4923    0.0000 C   0  0
    3.9053   -4.6492    0.0000 C   0  0
    4.5154   -6.0195    0.0000 C   0  0
    3.6337   -7.2330    0.0000 C   0  0
    4.2413   -8.6053    0.0000 N   0  3
    3.3579   -9.8176    0.0000 O   0  0
    5.7328   -8.7647    0.0000 O   0  5
    2.1419   -7.0762    0.0000 C   0  0
    1.5318   -5.7059    0.0000 C   0  0
    0.0400   -5.5491    0.0000 C   0  0
   -0.8417   -6.7626    0.0000 O   0  0
   -0.5701   -4.1788    0.0000 N   0  0
   -2.0630   -4.0243    0.0000 C   0  0
   -2.9439   -5.2394    0.0000 C   0  0
   -4.4368   -5.0850    0.0000 C   0  0
   -5.3172   -6.2994    0.0000 Br  0  0
  1  2  2  0
  2  3  1  0
  3  4  2  0
  4  5  1  0
  5  6  1  0
  6  7  1  0
  7  8  2  0
  7  9  2  0
  7 10  1  0
 10 11  2  0
 11 12  1  0
 12 13  2  0
 13 14  1  0
 14 15  2  0
 15 10  1  0
  5 16  2  0
 16 17  1  0
 17 18  2  0
 18  3  1  0
 18 19  1  0
 19 20  2  0
 20  2  1  0
 20 21  1  0
 21 22  2  0
 22 23  1  0
 23 24  2  0
 24 25  1  0
 25 26  2  0
 25 27  1  0
 24 28  1  0
 28 29  2  0
 29 21  1  0
 29 30  1  0
 30 31  2  0
 30 32  1  0
 32 19  1  0
 32 33  1  0
 33 34  1  0
 34 35  1  0
 35 36  1  0
M  CHG  2  25   1  27  -1
M  END
> <Smiles>
O=C1c2cc(OS(=O)(=O)c3ccccc3)ccc2-c2c1c1ccc([N+](=O)[O-])cc1c(=O)n2CCCBr

> <ID>
CHEMBL244765

> <standard_value>
50100

> <IC50_uM>
50.1

> <Activity>
No

> <pIC50>
4.300162274

> <BCI>
0

$$$$

  SciTegic03012415362D

 20 21  0  0  0  0            999 V2000
    3.8912   -5.2570    0.0000 C   0  0
    3.8933   -3.7570    0.0000 C   0  0
    2.5951   -3.0039    0.0000 O   0  0
    2.5973   -1.5031    0.0000 C   0  0
    3.8976   -0.7553    0.0000 O   0  0
    1.2990   -0.7500    0.0000 C   0  0
    1.2990    0.7500    0.0000 C   0  0
    2.5981    1.5000    0.0000 C   0  0
    0.0000    1.5000    0.0000 N   0  0
   -1.2990    0.7500    0.0000 C   0  0
   -2.5981    1.5000    0.0000 S   0  0
   -1.2990   -0.7500    0.0000 N   0  0
    0.0000   -1.5000    0.0000 C   0  0  3  0  0  0
    0.0000   -3.0008    0.0000 C   0  0
   -1.2978   -3.7529    0.0000 C   0  0
   -1.2955   -5.2529    0.0000 C   0  0
    0.0048   -6.0009    0.0000 C   0  0
    1.3026   -5.2488    0.0000 C   0  0
    2.6028   -5.9967    0.0000 O   0  0
    1.3002   -3.7488    0.0000 C   0  0
  1  2  1  0
  2  3  1  0
  3  4  1  0
  4  5  2  0
  4  6  1  0
  6  7  2  0
  7  8  1  0
  7  9  1  0
  9 10  1  0
 10 11  2  0
 10 12  1  0
 12 13  1  0
 13  6  1  0
 13 14  1  4
 14 15  2  0
 15 16  1  0
 16 17  2  0
 17 18  1  0
 18 19  1  0
 18 20  2  0
 20 14  1  0
M  END
> <Smiles>
CCOC(=O)C1=C(C)NC(=S)NC1c1cccc(O)c1

> <ID>
CHEMBL236789

> <standard_value>
50100

> <IC50_uM>
50.1

> <Activity>
No

> <pIC50>
4.300162274

> <BCI>
0

$$$$

  SciTegic03012415362D

 51 55  0  0  1  0            999 V2000
   10.3632   13.5302    0.0000 C   0  0
    9.0643   12.7800    0.0000 C   0  0
    9.0636   11.2791    0.0000 C   0  0
    7.7640   10.5284    0.0000 C   0  0
    7.7634    9.0276    0.0000 C   0  0
    6.4638    8.2769    0.0000 C   0  0
    6.4632    6.7761    0.0000 C   0  0  2  0  0  0
    7.7622    6.0260    0.0000 C   0  0
    5.1636    6.0254    0.0000 C   0  0
    5.1630    4.5246    0.0000 C   0  0
    6.4619    3.7745    0.0000 C   0  0
    3.8634    3.7739    0.0000 C   0  0
    3.8627    2.2731    0.0000 C   0  0
    2.5631    1.5224    0.0000 C   0  0
    1.2642    2.2725    0.0000 O   0  0
    2.5625    0.0216    0.0000 N   0  0
    1.2990   -0.7500    0.0000 C   0  0  2  0  0  0
    1.2628   -2.2303    0.0000 C   0  0
    2.5231   -3.0437    0.0000 O   0  0
    1.2990    0.7500    0.0000 C   0  0
    0.0000    1.5000    0.0000 C   0  0  1  0  0  0
   -0.3326    2.9571    0.0000 C   0  0
   -1.8253    3.1044    0.0000 C   0  0  2  0  0  0
   -2.5810    4.3981    0.0000 C   0  0  2  0  0  0
   -1.8372    5.7007    0.0000 C   0  0
   -4.0818    4.3915    0.0000 C   0  0
   -4.8388    5.6874    0.0000 C   0  0
   -6.3396    5.6807    0.0000 C   0  0  2  0  0  0
   -7.0834    4.3782    0.0000 C   0  0
   -7.0966    6.9767    0.0000 C   0  0
   -8.5966    6.9700    0.0000 C   0  0
   -6.3528    8.2793    0.0000 C   0  0
   -2.4266    1.7302    0.0000 C   0  0  1  0  0  0
   -3.5498    2.7244    0.0000 C   0  0
   -3.8111    0.9113    0.0000 C   0  0
   -3.8918   -0.5865    0.0000 C   0  0
   -2.5981   -1.5000    0.0000 C   0  0  1  0  0  0
   -1.2990   -0.7500    0.0000 C   0  0
    0.0000   -1.5000    0.0000 C   0  0
    0.0000   -3.0000    0.0000 C   0  0
    1.2991   -3.7500    0.0000 O   0  0
   -1.2990   -3.7500    0.0000 C   0  0
   -1.2990   -5.2500    0.0000 C   0  0
   -2.5981   -6.0000    0.0000 C   0  0  1  0  0  0
   -2.5981   -7.5000    0.0000 O   0  0
   -3.8971   -5.2500    0.0000 C   0  0
   -3.8971   -3.7500    0.0000 C   0  0
   -2.5981   -3.0000    0.0000 C   0  0  2  0  0  0
   -3.8971   -2.2500    0.0000 C   0  0
   -1.2990    0.7500    0.0000 C   0  0  1  0  0  0
    0.0000    0.0000    0.0000 O   0  0
  1  2  1  0
  2  3  1  0
  3  4  1  0
  4  5  1  0
  5  6  1  0
  6  7  1  0
  7  8  1  6
  7  9  1  0
  9 10  2  0
 10 11  1  0
 10 12  1  0
 12 13  2  0
 13 14  1  0
 14 15  2  0
 14 16  1  0
 17 16  1  1
 17 18  1  0
 18 19  2  0
 17 20  1  0
 21 20  1  6
 21 22  1  0
 23 22  1  1
 23 24  1  0
 24 25  1  1
 24 26  1  0
 26 27  2  0
 27 28  1  0
 28 29  1  6
 28 30  1  0
 30 31  1  0
 30 32  1  0
 23 33  1  0
 33 34  1  1
 33 35  1  0
 35 36  1  0
 37 36  1  1
 37 38  1  0
 38 39  2  0
 39 17  1  0
 39 40  1  0
 40 41  2  0
 40 42  1  0
 42 43  2  0
 43 44  1  0
 44 45  1  1
 44 46  1  0
 46 47  1  0
 47 48  1  0
 48 42  1  0
 48 37  1  0
 48 49  1  1
 38 50  1  0
 50 21  1  0
 50 33  1  0
 50 51  1  1
M  END
> <Smiles>
CCCCCC[C@H](C)/C=C(C)/C=C/C(=O)N[C@]1(C=O)C[C@H]2C[C@H]([C@H](C)/C=C/[C@H](C)C(C)C)[C@@]3(C)CC[C@H]4C(=C1C(=O)C1=C[C@@H](O)CC[C@@]14C)[C@@]23O

> <ID>
CHEMBL266060

> <standard_value>
50118.72

> <IC50_uM>
50.11872

> <Activity>
No

> <pIC50>
4.300000029

> <BCI>
0

$$$$

  SciTegic03012415362D

 38 42  0  0  0  0            999 V2000
    2.5951   -3.0031    0.0000 C   0  0
    2.5973   -1.5031    0.0000 O   0  0
    1.2990   -0.7500    0.0000 C   0  0
    1.2990    0.7500    0.0000 C   0  0
    0.0000    1.5000    0.0000 C   0  0
   -1.2990    0.7500    0.0000 C   0  0
   -1.2990   -0.7500    0.0000 C   0  0
    0.0000   -1.5000    0.0000 C   0  0
   -2.7248   -1.2135    0.0000 C   0  0
   -3.1904   -2.6376    0.0000 N   0  0
   -2.1890   -3.7554    0.0000 O   0  0
   -2.6555   -5.1819    0.0000 C   0  0
   -4.1234   -5.4906    0.0000 C   0  0
   -1.6546   -6.2992    0.0000 O   0  0
   -3.6065    0.0000    0.0000 C   0  0
   -2.7248    1.2135    0.0000 C   0  0
   -3.3339    2.5831    0.0000 C   0  0
   -2.4537    3.7988    0.0000 N   0  0
   -3.0656    5.1692    0.0000 C   0  0
   -2.1876    6.3855    0.0000 C   0  0
   -2.8019    7.7539    0.0000 C   0  0
   -4.2942    7.9062    0.0000 C   0  0
   -4.9116    9.2741    0.0000 C   0  0
   -4.0358   10.4919    0.0000 C   0  0
   -6.4049    9.4243    0.0000 N   0  0
   -7.0224   10.7922    0.0000 O   0  0
   -8.5157   10.9424    0.0000 C   0  0
   -9.3915    9.7247    0.0000 C   0  0
   -9.1328   12.3096    0.0000 O   0  0
   -5.1722    6.6900    0.0000 C   0  0
   -4.5579    5.3215    0.0000 C   0  0
   -4.8257    2.7399    0.0000 N   0  0
   -5.7073    1.5263    0.0000 C   0  0
   -7.1991    1.6831    0.0000 C   0  0
   -8.0808    0.4696    0.0000 C   0  0
   -7.4707   -0.9007    0.0000 C   0  0
   -5.9789   -1.0575    0.0000 C   0  0
   -5.0972    0.1560    0.0000 C   0  0
  1  2  1  0
  2  3  1  0
  3  4  2  0
  4  5  1  0
  5  6  2  0
  6  7  1  0
  7  8  2  0
  8  3  1  0
  7  9  1  0
  9 10  2  0
 10 11  1  0
 11 12  1  0
 12 13  1  0
 12 14  2  0
  9 15  1  0
 15 16  2  0
 16  6  1  0
 16 17  1  0
 17 18  1  0
 18 19  1  0
 19 20  2  0
 20 21  1  0
 21 22  2  0
 22 23  1  0
 23 24  1  0
 23 25  2  0
 25 26  1  0
 26 27  1  0
 27 28  1  0
 27 29  2  0
 22 30  1  0
 30 31  2  0
 31 19  1  0
 17 32  2  0
 32 33  1  0
 33 34  2  0
 34 35  1  0
 35 36  2  0
 36 37  1  0
 37 38  2  0
 38 15  1  0
 38 33  1  0
M  END
> <Smiles>
COc1ccc2c(c1)/C(=N\OC(C)=O)c1c-2c(Nc2ccc(/C(C)=N/OC(C)=O)cc2)nc2ccccc12

> <ID>
CHEMBL2047604

> <standard_value>
52480

> <IC50_uM>
52.48

> <Activity>
No

> <pIC50>
4.280006174

> <BCI>
0

$$$$

  SciTegic03012415362D

 23 26  0  0  0  0            999 V2000
    3.8805   -1.4410    0.0000 O   0  0
    2.4133   -1.7530    0.0000 C   0  0
    1.2990   -0.7500    0.0000 C   0  0
    1.2990    0.7500    0.0000 C   0  0
    0.0000    1.5000    0.0000 C   0  0
   -1.2990    0.7500    0.0000 C   0  0
   -1.2990   -0.7500    0.0000 C   0  0
    0.0000   -1.5000    0.0000 C   0  0
    0.3114   -2.9665    0.0000 C   0  0
    1.8032   -3.1233    0.0000 C   0  0
    2.4135   -4.4923    0.0000 C   0  0
    3.9053   -4.6492    0.0000 C   0  0
    4.5154   -6.0195    0.0000 C   0  0
    3.6337   -7.2330    0.0000 C   0  0
    2.1419   -7.0762    0.0000 C   0  0
    1.5318   -5.7059    0.0000 C   0  0
    0.0400   -5.5491    0.0000 C   0  0
   -0.8417   -6.7626    0.0000 O   0  0
   -0.5701   -4.1788    0.0000 N   0  0
   -2.0630   -4.0243    0.0000 C   0  0
   -2.9439   -5.2394    0.0000 C   0  0
   -4.4368   -5.0850    0.0000 C   0  0
   -5.3172   -6.2994    0.0000 O   0  0
  1  2  2  0
  2  3  1  0
  3  4  2  0
  4  5  1  0
  5  6  2  0
  6  7  1  0
  7  8  2  0
  8  3  1  0
  8  9  1  0
  9 10  2  0
 10  2  1  0
 10 11  1  0
 11 12  2  0
 12 13  1  0
 13 14  2  0
 14 15  1  0
 15 16  2  0
 16 11  1  0
 16 17  1  0
 17 18  2  0
 17 19  1  0
 19  9  1  0
 19 20  1  0
 20 21  1  0
 21 22  1  0
 22 23  1  0
M  END
> <Smiles>
O=C1c2ccccc2-c2c1c1ccccc1c(=O)n2CCCO

> <ID>
CHEMBL121622

> <standard_value>
52500

> <IC50_uM>
52.5

> <Activity>
No

> <pIC50>
4.279840697

> <BCI>
0

$$$$

  SciTegic03012415362D

 32 35  0  0  0  0            999 V2000
    3.8926   -3.7566    0.0000 C   0  0
    2.5951   -3.0039    0.0000 O   0  0
    2.5973   -1.5031    0.0000 C   0  0
    3.8976   -0.7553    0.0000 O   0  0
    1.2990   -0.7500    0.0000 C   0  0
    1.2990    0.7500    0.0000 C   0  0
    0.0000    1.5000    0.0000 C   0  0
   -1.2990    0.7500    0.0000 C   0  0
   -1.2990   -0.7500    0.0000 C   0  0
    0.0000   -1.5000    0.0000 C   0  0
   -2.7248   -1.2135    0.0000 C   0  0
   -3.1882   -2.6402    0.0000 O   0  0
   -3.6065    0.0000    0.0000 C   0  0
   -2.7248    1.2135    0.0000 C   0  0
   -3.3339    2.5831    0.0000 N   0  0
   -2.4537    3.7988    0.0000 C   0  0
   -3.0656    5.1692    0.0000 C   0  0
   -2.1854    6.3848    0.0000 C   0  0
   -2.7972    7.7553    0.0000 N   0  0
   -1.9171    8.9709    0.0000 N   0  3
   -1.0374   10.1859    0.0000 N   0  5
   -4.8257    2.7399    0.0000 C   0  0
   -5.4358    4.1102    0.0000 O   0  0
   -5.7073    1.5263    0.0000 C   0  0
   -7.1991    1.6831    0.0000 C   0  0
   -8.0808    0.4696    0.0000 C   0  0
   -9.5737    0.6234    0.0000 N   0  3
  -10.4537   -0.5914    0.0000 O   0  0
  -10.1862    1.9927    0.0000 O   0  5
   -7.4707   -0.9007    0.0000 C   0  0
   -5.9789   -1.0575    0.0000 C   0  0
   -5.0972    0.1560    0.0000 C   0  0
  1  2  1  0
  2  3  1  0
  3  4  2  0
  3  5  1  0
  5  6  2  0
  6  7  1  0
  7  8  2  0
  8  9  1  0
  9 10  2  0
 10  5  1  0
  9 11  1  0
 11 12  2  0
 11 13  1  0
 13 14  2  0
 14  8  1  0
 14 15  1  0
 15 16  1  0
 16 17  1  0
 17 18  1  0
 18 19  1  0
 19 20  2  0
 20 21  2  0
 15 22  1  0
 22 23  2  0
 22 24  1  0
 24 25  2  0
 25 26  1  0
 26 27  1  0
 27 28  2  0
 27 29  1  0
 26 30  2  0
 30 31  1  0
 31 32  2  0
 32 13  1  0
 32 24  1  0
M  CHG  4  20   1  21  -1  27   1  29  -1
M  END
> <Smiles>
COC(=O)c1ccc2c(c1)C(=O)c1c-2n(CCCN=[N+]=[N-])c(=O)c2cc([N+](=O)[O-])ccc12

> <ID>
CHEMBL437947

> <standard_value>
53700

> <IC50_uM>
53.7

> <Activity>
No

> <pIC50>
4.270025714

> <BCI>
0

$$$$

  SciTegic03012415362D

 26 30  0  0  0  0            999 V2000
    3.8983   -0.7459    0.0000 C   0  0
    2.6003   -1.4977    0.0000 C   0  0
    1.2990   -0.7500    0.0000 N   0  3
    1.2990    0.7500    0.0000 C   0  0
    0.0000    1.5000    0.0000 C   0  0
    0.0000    3.0000    0.0000 C   0  0
   -1.2991    3.7500    0.0000 C   0  0
   -1.2960    5.2508    0.0000 O   0  0
    0.0041    5.9990    0.0000 C   0  0
   -2.5981    3.0000    0.0000 C   0  0
   -3.8994    3.7477    0.0000 O   0  0
   -5.1974    2.9959    0.0000 C   0  0
   -2.5981    1.5000    0.0000 C   0  0
   -1.2990    0.7500    0.0000 C   0  0
   -1.2990   -0.7500    0.0000 C   0  0
    0.0000   -1.5000    0.0000 C   0  0
   -0.3114   -2.9665    0.0000 C   0  0
    0.5701   -4.1788    0.0000 C   0  0
   -0.0400   -5.5491    0.0000 C   0  0
   -1.5318   -5.7059    0.0000 C   0  0
   -2.4135   -4.4924    0.0000 C   0  0
   -1.8032   -3.1233    0.0000 C   0  0
   -2.4133   -1.7530    0.0000 C   0  0
   -1.8437   -7.1723    0.0000 O   0  0
   -0.5447   -7.9223    0.0000 C   0  0
    0.5700   -6.9186    0.0000 O   0  0
  1  2  1  0
  2  3  1  0
  3  4  2  0
  4  5  1  0
  5  6  2  0
  6  7  1  0
  7  8  1  0
  8  9  1  0
  7 10  2  0
 10 11  1  0
 11 12  1  0
 10 13  1  0
 13 14  2  0
 14  5  1  0
 14 15  1  0
 15 16  2  0
 16  3  1  0
 16 17  1  0
 17 18  2  0
 18 19  1  0
 19 20  2  0
 20 21  1  0
 21 22  2  0
 22 17  1  0
 22 23  1  0
 23 15  1  0
 20 24  1  0
 24 25  1  0
 25 26  1  0
 26 19  1  0
M  CHG  1   3   1
M  END
> <Smiles>
CC[n+]1cc2cc(OC)c(OC)cc2c2c1-c1cc3c(cc1C2)OCO3.[Cl-]

> <ID>
CHEMBL316437

> <standard_value>
56000

> <IC50_uM>
56

> <Activity>
No

> <pIC50>
4.251811973

> <BCI>
0

> <RemovedSalts>
Cl-

$$$$

  SciTegic03012415362D

 32 35  0  0  0  0            999 V2000
    5.1887   -6.0105    0.0000 C   0  0
    3.8912   -5.2578    0.0000 O   0  0
    3.8933   -3.7570    0.0000 C   0  0
    5.1937   -3.0093    0.0000 O   0  0
    2.5951   -3.0039    0.0000 O   0  0
    2.5973   -1.5031    0.0000 C   0  0
    1.2990   -0.7500    0.0000 C   0  0
    1.2990    0.7500    0.0000 C   0  0
    0.0000    1.5000    0.0000 C   0  0
   -1.2990    0.7500    0.0000 C   0  0
   -1.2990   -0.7500    0.0000 C   0  0
    0.0000   -1.5000    0.0000 C   0  0
   -2.7248   -1.2135    0.0000 C   0  0
   -3.1882   -2.6402    0.0000 O   0  0
   -3.6065    0.0000    0.0000 C   0  0
   -2.7248    1.2135    0.0000 C   0  0
   -3.3339    2.5831    0.0000 N   0  0
   -2.4537    3.7988    0.0000 C   0  0
   -3.0656    5.1692    0.0000 C   0  0
   -2.1854    6.3848    0.0000 C   0  0
   -2.7969    7.7545    0.0000 Br  0  0
   -4.8257    2.7399    0.0000 C   0  0
   -5.4358    4.1102    0.0000 O   0  0
   -5.7073    1.5263    0.0000 C   0  0
   -7.1991    1.6831    0.0000 C   0  0
   -8.0808    0.4696    0.0000 C   0  0
   -9.5737    0.6234    0.0000 N   0  3
  -10.4537   -0.5914    0.0000 O   0  0
  -10.1862    1.9927    0.0000 O   0  5
   -7.4707   -0.9007    0.0000 C   0  0
   -5.9789   -1.0575    0.0000 C   0  0
   -5.0972    0.1560    0.0000 C   0  0
  1  2  1  0
  2  3  1  0
  3  4  2  0
  3  5  1  0
  5  6  1  0
  6  7  1  0
  7  8  2  0
  8  9  1  0
  9 10  2  0
 10 11  1  0
 11 12  2  0
 12  7  1  0
 11 13  1  0
 13 14  2  0
 13 15  1  0
 15 16  2  0
 16 10  1  0
 16 17  1  0
 17 18  1  0
 18 19  1  0
 19 20  1  0
 20 21  1  0
 17 22  1  0
 22 23  2  0
 22 24  1  0
 24 25  2  0
 25 26  1  0
 26 27  1  0
 27 28  2  0
 27 29  1  0
 26 30  2  0
 30 31  1  0
 31 32  2  0
 32 15  1  0
 32 24  1  0
M  CHG  2  27   1  29  -1
M  END
> <Smiles>
COC(=O)OCc1ccc2c(c1)C(=O)c1c-2n(CCCBr)c(=O)c2cc([N+](=O)[O-])ccc12

> <ID>
CHEMBL395749

> <standard_value>
56200

> <IC50_uM>
56.2

> <Activity>
No

> <pIC50>
4.250263684

> <BCI>
0

$$$$

  SciTegic03012415362D

 53 58  0  0  1  0            999 V2000
   12.7391    1.9311    0.0000 C   0  0
   12.7393    0.4311    0.0000 C   0  0
   14.0387   -0.3183    0.0000 O   0  0
   11.4394   -0.3191    0.0000 O   0  0
   10.1393    0.4307    0.0000 C   0  0
   11.4381    1.1811    0.0000 C   0  0
   10.1391    1.9307    0.0000 C   0  0
    8.8395   -0.3195    0.0000 C   0  0
    8.8397   -1.8195    0.0000 C   0  0
    7.5394    0.4303    0.0000 C   0  0
    6.2395   -0.3199    0.0000 C   0  0
    6.2397   -1.8199    0.0000 O   0  0
    4.9394    0.4299    0.0000 O   0  0
    3.6400   -0.3200    0.0000 C   0  0  1  0  0  0
    3.6400   -1.8700    0.0000 C   0  0
    4.9392   -2.6198    0.0000 O   0  0
    2.2900   -2.6500    0.0000 O   0  0
    0.9500   -1.8700    0.0000 C   0  0  2  0  0  0
   -0.4000   -2.6500    0.0000 C   0  0
   -1.7400   -1.8700    0.0000 C   0  0  1  0  0  0
   -3.0900   -2.6500    0.0000 C   0  0  2  0  0  0
   -3.0900   -4.1500    0.0000 C   0  0
   -4.4400   -1.8700    0.0000 C   0  0
   -5.7392   -2.6198    0.0000 O   0  0
   -4.4400   -0.3200    0.0000 C   0  0
   -5.7363    0.4353    0.0000 O   0  0
   -5.7313    1.9361    0.0000 C   0  0  2  0  0  0
   -4.4282    2.6792    0.0000 O   0  0
   -4.4202    4.1792    0.0000 C   0  0  2  0  0  0
   -3.1149    4.9200    0.0000 C   0  0
   -1.8210    4.1612    0.0000 O   0  0
   -5.7152    4.9361    0.0000 C   0  0  1  0  0  0
   -5.7072    6.4361    0.0000 O   0  0
   -7.0182    4.1931    0.0000 C   0  0  2  0  0  0
   -8.3132    4.9501    0.0000 O   0  0
   -7.0263    2.6931    0.0000 C   0  0  1  0  0  0
   -8.3293    1.9501    0.0000 O   0  0
   -3.0900    0.4500    0.0000 C   0  0
   -1.7400   -0.3200    0.0000 C   0  0  1  0  0  0
   -1.7424    1.1800    0.0000 C   0  0
   -0.4000    0.4500    0.0000 C   0  0  1  0  0  0
   -0.4000    2.0000    0.0000 C   0  0  1  0  0  0
   -1.6992    2.7498    0.0000 O   0  0
    0.9500    2.7800    0.0000 C   0  0  2  0  0  0
    0.9524    4.2800    0.0000 O   0  0
    2.2900    2.0000    0.0000 C   0  0  2  0  0  0
    1.5148    3.3015    0.0000 C   0  0
    2.2668    4.5994    0.0000 O   0  0
    0.0148    3.3042    0.0000 O   0  0
    0.9600    1.8100    0.0000 O   0  0
    0.3700    0.7400    0.0000 C   0  0
    0.9500   -0.3200    0.0000 C   0  0  1  0  0  0
    2.2900    0.4500    0.0000 C   0  0  1  0  0  0
  1  2  1  0
  2  3  2  0
  2  4  1  0
  4  5  1  0
  5  6  1  0
  5  7  1  0
  5  8  1  0
  8  9  1  0
  8 10  2  0
 10 11  1  0
 11 12  2  0
 11 13  1  0
 14 13  1  1
 14 15  1  0
 15 16  2  0
 15 17  1  0
 18 17  1  6
 18 19  1  0
 20 19  1  1
 20 21  1  0
 21 22  1  6
 21 23  1  0
 23 24  2  0
 23 25  1  0
 25 26  1  0
 27 26  1  1
 27 28  1  0
 28 29  1  0
 29 30  1  1
 30 31  1  0
 29 32  1  0
 32 33  1  6
 32 34  1  0
 34 35  1  1
 34 36  1  0
 36 27  1  0
 36 37  1  6
 25 38  2  0
 38 39  1  0
 39 20  1  0
 39 40  1  1
 41 39  1  1
 41 42  1  0
 42 43  1  1
 42 44  1  0
 44 45  1  6
 44 46  1  0
 46 47  1  6
 47 48  2  0
 47 49  1  0
 46 50  1  0
 50 51  1  0
 52 51  1  1
 52 41  1  0
 52 18  1  0
 53 52  1  6
 53 14  1  0
 53 46  1  0
M  END
> <Smiles>
CC(=O)OC(C)(C)/C(C)=C/C(=O)O[C@H]1C(=O)O[C@@H]2C[C@H]3[C@H](C)C(=O)C(O[C@@H]4O[C@H](CO)[C@@H](O)[C@H](O)[C@H]4O)=C[C@]3(C)[C@H]3[C@@H](O)[C@H](O)[C@]4(C(=O)O)OC[C@]32[C@@H]14

> <ID>
CHEMBL448304

> <standard_value>
56234.13

> <IC50_uM>
56.23413

> <Activity>
No

> <pIC50>
4.250000019

> <BCI>
0

$$$$

  SciTegic03012415362D

 31 34  0  0  0  0            999 V2000
    2.5951   -3.0031    0.0000 C   0  0
    2.5973   -1.5031    0.0000 C   0  0
    1.2990   -0.7500    0.0000 C   0  0
    1.2990    0.7500    0.0000 C   0  0
    0.0000    1.5000    0.0000 C   0  0
   -1.2990    0.7500    0.0000 C   0  0
   -1.2990   -0.7500    0.0000 C   0  0
    0.0000   -1.5000    0.0000 C   0  0
   -2.7248   -1.2135    0.0000 C   0  0
   -3.1882   -2.6402    0.0000 O   0  0
   -3.6065    0.0000    0.0000 C   0  0
   -2.7248    1.2135    0.0000 C   0  0
   -3.3339    2.5831    0.0000 N   0  0
   -2.4537    3.7988    0.0000 C   0  0
   -3.0656    5.1692    0.0000 C   0  0
   -2.1854    6.3848    0.0000 C   0  0
   -2.7972    7.7553    0.0000 N   0  0
   -1.9171    8.9709    0.0000 N   0  3
   -1.0374   10.1859    0.0000 N   0  5
   -4.8257    2.7399    0.0000 C   0  0
   -5.4358    4.1102    0.0000 O   0  0
   -5.7073    1.5263    0.0000 C   0  0
   -7.1991    1.6831    0.0000 C   0  0
   -8.0808    0.4696    0.0000 C   0  0
   -9.5731    0.6295    0.0000 O   0  0
  -10.1812    2.0007    0.0000 C   0  0
   -7.4707   -0.9007    0.0000 C   0  0
   -8.3503   -2.1167    0.0000 O   0  0
   -7.7383   -3.4862    0.0000 C   0  0
   -5.9789   -1.0575    0.0000 C   0  0
   -5.0972    0.1560    0.0000 C   0  0
  1  2  1  0
  2  3  1  0
  3  4  2  0
  4  5  1  0
  5  6  2  0
  6  7  1  0
  7  8  2  0
  8  3  1  0
  7  9  1  0
  9 10  2  0
  9 11  1  0
 11 12  2  0
 12  6  1  0
 12 13  1  0
 13 14  1  0
 14 15  1  0
 15 16  1  0
 16 17  1  0
 17 18  2  0
 18 19  2  0
 13 20  1  0
 20 21  2  0
 20 22  1  0
 22 23  2  0
 23 24  1  0
 24 25  1  0
 25 26  1  0
 24 27  2  0
 27 28  1  0
 28 29  1  0
 27 30  1  0
 30 31  2  0
 31 11  1  0
 31 22  1  0
M  CHG  2  18   1  19  -1
M  END
> <Smiles>
CCc1ccc2c(c1)C(=O)c1c-2n(CCCN=[N+]=[N-])c(=O)c2cc(OC)c(OC)cc12

> <ID>
CHEMBL230317

> <standard_value>
57500

> <IC50_uM>
57.5

> <Activity>
No

> <pIC50>
4.240332155

> <BCI>
0

$$$$

  SciTegic03012415362D

 26 27  0  0  1  0            999 V2000
   -5.4227    4.1609    0.0000 C   0  0
   -6.1657    2.8578    0.0000 C   0  0
   -7.6657    2.8502    0.0000 O   0  0
   -5.4079    1.5624    0.0000 O   0  0
   -3.9100    1.5700    0.0000 C   0  0  2  0  0  0
   -3.0100    2.8100    0.0000 C   0  0
   -1.5600    2.3300    0.0000 C   0  0  2  0  0  0
   -1.5600    0.8100    0.0000 C   0  0  2  0  0  0
    0.0000    0.3600    0.0000 C   0  0
    0.1900   -1.1200    0.0000 C   0  0
    1.3300   -1.6300    0.0000 C   0  0
    2.3100   -1.1700    0.0000 C   0  0
    2.5200    0.3600    0.0000 C   0  0
    4.1500    0.6800    0.0000 C   0  0  2  0  0  0
    5.3192   -0.2597    0.0000 C   0  0
    4.1100    2.4200    0.0000 O   0  0
    2.6000    2.8000    0.0000 C   0  0
    1.8719    2.1146    0.0000 O   0  0
    2.3100    4.3400    0.0000 C   0  0
    0.3300    4.3600    0.0000 C   0  0
    0.0304    5.8664    0.0000 C   0  0  1  0  0  0
    1.1392    1.8839    0.0000 O   0  0
   -0.3460    2.1000    0.0000 C   0  0
   -0.9006    3.4937    0.0000 C   0  0
   -1.2760    0.9231    0.0000 O   0  0
   -3.0100    0.3400    0.0000 C   0  0
  1  2  1  0
  2  3  2  0
  2  4  1  0
  5  4  1  6
  5  6  1  0
  7  6  1  1
  7  8  1  0
  8  9  1  6
  9 10  2  0
 10 11  1  0
 11 12  1  0
 12 13  1  0
 13 14  1  0
 14 15  1  1
 14 16  1  0
 16 17  1  0
 17 18  2  0
 17 19  1  0
 19 20  2  0
 20 21  1  0
 21  7  1  0
 21 22  1  6
 22 23  1  0
 23 24  1  0
 23 25  2  0
  8 26  1  0
 26  5  1  0
M  END
> <Smiles>
CC(=O)O[C@@H]1C[C@@H]2[C@H](/C=C/CCC[C@H](C)OC(=O)/C=C/[C@H]2OC(C)=O)C1

> <ID>
CHEMBL378523

> <standard_value>
58880

> <IC50_uM>
58.88

> <Activity>
No

> <pIC50>
4.230032199

> <BCI>
0

$$$$

  SciTegic03012415362D

 21 23  0  0  0  0            999 V2000
    1.1662   -9.7952    0.0000 C   0  0
    0.7050   -8.3678    0.0000 O   0  0
   -0.7624   -8.0525    0.0000 C   0  0
   -1.7662   -9.1671    0.0000 C   0  0
   -3.2334   -8.8550    0.0000 C   0  0
   -3.6967   -7.4283    0.0000 C   0  0
   -2.6928   -6.3138    0.0000 C   0  0
   -1.2256   -6.6258    0.0000 C   0  0
   -0.2234   -5.5086    0.0000 N   0  0
   -0.6890   -4.0818    0.0000 C   0  0
   -2.1567   -3.7722    0.0000 O   0  0
    0.3114   -2.9665    0.0000 N   0  0
    1.8032   -3.1233    0.0000 N   0  0
    2.4133   -1.7530    0.0000 C   0  0
    3.8805   -1.4410    0.0000 N   0  0
    1.2990   -0.7500    0.0000 C   0  0
    1.2990    0.7500    0.0000 C   0  0
    0.0000    1.5000    0.0000 C   0  0
   -1.2990    0.7500    0.0000 C   0  0
   -1.2990   -0.7500    0.0000 C   0  0
    0.0000   -1.5000    0.0000 C   0  0
  1  2  1  0
  2  3  1  0
  3  4  2  0
  4  5  1  0
  5  6  2  0
  6  7  1  0
  7  8  2  0
  8  3  1  0
  8  9  1  0
  9 10  1  0
 10 11  2  0
 10 12  1  0
 12 13  1  0
 13 14  2  0
 14 15  1  0
 14 16  1  0
 16 17  2  0
 17 18  1  0
 18 19  2  0
 19 20  1  0
 20 21  2  0
 21 16  1  0
 21 12  1  0
M  END
> <Smiles>
COc1ccccc1NC(=O)n1nc(N)c2ccccc21

> <ID>
CHEMBL463625

> <standard_value>
60900

> <IC50_uM>
60.9

> <Activity>
No

> <pIC50>
4.215382707

> <BCI>
0

$$$$

  SciTegic03012415362D

 40 41  0  0  1  0            999 V2000
   26.2659  -26.3444    0.0000 C   0  0
   25.3818  -25.1327    0.0000 C   0  0
   23.8894  -25.2916    0.0000 C   0  0
   23.0048  -24.0792    0.0000 C   0  0
   21.5124  -24.2381    0.0000 C   0  0
   20.6278  -23.0257    0.0000 C   0  0
   19.1354  -23.1846    0.0000 C   0  0
   18.2508  -21.9722    0.0000 C   0  0
   16.7584  -22.1312    0.0000 C   0  0
   15.8738  -20.9187    0.0000 C   0  0
   14.3815  -21.0777    0.0000 C   0  0
   13.4969  -19.8653    0.0000 C   0  0
   12.0045  -20.0242    0.0000 C   0  0  1  0  0  0
   11.3967  -21.3955    0.0000 O   0  0
   11.1214  -18.8138    0.0000 C   0  0  1  0  0  0
    9.6214  -18.8137    0.0000 C   0  0
    9.1580  -17.3871    0.0000 C   0  0
   10.3716  -16.5273    0.0000 C   0  0  2  0  0  0
   10.3737  -15.0265    0.0000 C   0  0  2  0  0  0
   11.6740  -14.2788    0.0000 O   0  0
    9.0755  -14.2734    0.0000 C   0  0
    9.0776  -12.7726    0.0000 C   0  0
    7.7794  -12.0195    0.0000 C   0  0
    7.7815  -10.5187    0.0000 C   0  0
    6.4833   -9.7656    0.0000 C   0  0
    6.4855   -8.2648    0.0000 C   0  0
    5.1873   -7.5117    0.0000 C   0  0
    5.1894   -6.0109    0.0000 C   0  0
    3.8912   -5.2578    0.0000 C   0  0
    3.8933   -3.7570    0.0000 C   0  0
    2.5951   -3.0039    0.0000 C   0  0
    2.5973   -1.5031    0.0000 C   0  0
    1.2990   -0.7500    0.0000 C   0  0
    1.2990    0.7500    0.0000 C   0  0
    0.0000    1.5000    0.0000 N   0  0
   -1.2990    0.7500    0.0000 C   0  0
   -2.5981    1.5000    0.0000 N   0  0
   -1.2990   -0.7500    0.0000 N   0  0
    0.0000   -1.5000    0.0000 C   0  0
   11.5850  -17.3873    0.0000 O   0  0
  1  2  1  0
  2  3  1  0
  3  4  1  0
  4  5  1  0
  5  6  1  0
  6  7  1  0
  7  8  1  0
  8  9  1  0
  9 10  1  0
 10 11  1  0
 11 12  1  0
 12 13  1  0
 13 14  1  1
 13 15  1  0
 15 16  1  1
 16 17  1  0
 18 17  1  6
 18 19  1  0
 19 20  1  1
 19 21  1  0
 21 22  1  0
 22 23  1  0
 23 24  1  0
 24 25  1  0
 25 26  1  0
 26 27  1  0
 27 28  1  0
 28 29  1  0
 29 30  1  0
 30 31  1  0
 31 32  1  0
 32 33  1  0
 33 34  2  0
 34 35  1  0
 35 36  2  0
 36 37  1  0
 36 38  1  0
 38 39  2  0
 39 33  1  0
 18 40  1  0
 40 15  1  0
M  END
> <Smiles>
CCCCCCCCCCCC[C@@H](O)[C@H]1CC[C@H]([C@H](O)CCCCCCCCCCCCc2cnc(N)nc2)O1

> <ID>
CHEMBL254923

> <standard_value>
62000

> <IC50_uM>
62

> <Activity>
No

> <pIC50>
4.207608311

> <BCI>
0

$$$$

  SciTegic03012415362D

 26 30  0  0  0  0            999 V2000
    3.8983   -0.7459    0.0000 C   0  0
    2.6003   -1.4977    0.0000 O   0  0
    1.2990   -0.7500    0.0000 C   0  0
    1.2990    0.7500    0.0000 C   0  0
    0.0000    1.5000    0.0000 C   0  0
    0.0000    3.0000    0.0000 C   0  0
   -1.2991    3.7500    0.0000 C   0  0
   -2.5981    3.0000    0.0000 N   0  0
   -3.8971    3.7500    0.0000 C   0  0
   -2.5981    1.5000    0.0000 C   0  0
   -3.8971    0.7500    0.0000 O   0  0
   -1.2990    0.7500    0.0000 C   0  0
   -1.2990   -0.7500    0.0000 C   0  0
    0.0000   -1.5000    0.0000 C   0  0
   -0.0031   -3.0008    0.0000 O   0  0
   -1.3032   -3.7490    0.0000 C   0  0
   -0.9876    5.2165    0.0000 C   0  0
   -1.8692    6.4288    0.0000 C   0  0
   -1.2591    7.7991    0.0000 C   0  0
    0.2327    7.9559    0.0000 C   0  0
    1.1144    6.7424    0.0000 C   0  0
    0.5042    5.3733    0.0000 C   0  0
    1.1143    4.0030    0.0000 C   0  0
    0.5446    9.4223    0.0000 O   0  0
   -0.7544   10.1723    0.0000 C   0  0
   -1.8691    9.1686    0.0000 O   0  0
  1  2  1  0
  2  3  1  0
  3  4  2  0
  4  5  1  0
  5  6  1  0
  6  7  2  0
  7  8  1  0
  8  9  1  0
  8 10  1  0
 10 11  2  0
 10 12  1  0
 12  5  2  0
 12 13  1  0
 13 14  2  0
 14  3  1  0
 14 15  1  0
 15 16  1  0
  7 17  1  0
 17 18  2  0
 18 19  1  0
 19 20  2  0
 20 21  1  0
 21 22  2  0
 22 17  1  0
 22 23  1  0
 23  6  1  0
 20 24  1  0
 24 25  1  0
 25 26  1  0
 26 19  1  0
M  END
> <Smiles>
COc1cc2c3c(n(C)c(=O)c2cc1OC)-c1cc2c(cc1C3)OCO2

> <ID>
CHEMBL121450

> <standard_value>
64200

> <IC50_uM>
64.2

> <Activity>
No

> <pIC50>
4.192464972

> <BCI>
0

$$$$

  SciTegic03012415362D

 36 40  0  0  0  0            999 V2000
   11.6982   -0.7323    0.0000 C   0  0
   10.4003   -1.4841    0.0000 C   0  0
    9.0990   -0.7364    0.0000 C   0  0
    7.8003   -1.4887    0.0000 C   0  0
    6.4990   -0.7409    0.0000 N   0  0
    6.4933    0.7599    0.0000 C   0  0
    5.1912    1.5062    0.0000 C   0  0
    5.1855    3.0070    0.0000 C   0  0
    3.8841    3.7529    0.0000 C   0  0
    5.2003   -1.4932    0.0000 C   0  0
    3.8990   -0.7455    0.0000 C   0  0
    2.6003   -1.4977    0.0000 C   0  0
    1.2990   -0.7500    0.0000 N   0  0
    1.2990    0.7500    0.0000 C   0  0
    2.5981    1.5000    0.0000 O   0  0
    0.0000    1.5000    0.0000 C   0  0
   -0.3115    2.9665    0.0000 C   0  0
    0.5701    4.1788    0.0000 C   0  0
   -0.0400    5.5491    0.0000 C   0  0
   -1.5318    5.7059    0.0000 C   0  0
   -2.4135    4.4923    0.0000 C   0  0
   -1.8032    3.1233    0.0000 C   0  0
   -2.4133    1.7530    0.0000 N   0  0
   -3.8805    1.4409    0.0000 C   0  0
   -1.2990    0.7500    0.0000 C   0  0
   -1.2990   -0.7500    0.0000 N   0  0
   -2.4133   -1.7530    0.0000 N   0  0
   -1.8032   -3.1233    0.0000 N   0  0
   -0.3114   -2.9665    0.0000 C   0  0
    0.6929   -4.0817    0.0000 C   0  0
    0.3385   -5.5341    0.0000 C   0  0
    1.4233   -6.5700    0.0000 C   0  0
    2.8629   -6.1484    0.0000 C   0  0
    3.2176   -4.6910    0.0000 C   0  0
    2.1327   -3.6551    0.0000 C   0  0
    0.0000   -1.5000    0.0000 C   0  0
  1  2  1  0
  2  3  1  0
  3  4  1  0
  4  5  1  0
  5  6  1  0
  6  7  1  0
  7  8  1  0
  8  9  1  0
  5 10  1  0
 10 11  1  0
 11 12  1  0
 12 13  1  0
 13 14  1  0
 14 15  2  0
 14 16  1  0
 16 17  1  0
 17 18  2  0
 18 19  1  0
 19 20  2  0
 20 21  1  0
 21 22  2  0
 22 17  1  0
 22 23  1  0
 23 24  1  0
 23 25  1  0
 25 16  2  0
 25 26  1  0
 26 27  1  0
 27 28  2  0
 28 29  1  0
 29 30  1  0
 30 31  2  0
 31 32  1  0
 32 33  2  0
 33 34  1  0
 34 35  2  0
 35 30  1  0
 29 36  2  0
 36 13  1  0
 36 26  1  0
M  END
> <Smiles>
CCCCN(CCCC)CCCn1c(=O)c2c3ccccc3n(C)c2n2nnc(-c3ccccc3)c12

> <ID>
CHEMBL260443

> <standard_value>
66069.34

> <IC50_uM>
66.06934

> <Activity>
No

> <pIC50>
4.180000032

> <BCI>
0

$$$$

  SciTegic03012415362D

 22 26  0  0  0  0            999 V2000
    2.5981   -1.5000    0.0000 O   0  0
    1.2990   -0.7500    0.0000 C   0  0
    1.2990    0.7500    0.0000 C   0  0
    2.5981    1.5000    0.0000 C   0  0
    2.5981    3.0000    0.0000 C   0  0
    1.2990    3.7500    0.0000 C   0  0
    0.0000    3.0000    0.0000 C   0  0
    0.0000    1.5000    0.0000 C   0  0
   -1.2990    0.7500    0.0000 C   0  0
   -1.2990   -0.7500    0.0000 C   0  0
    0.0000   -1.5000    0.0000 N   0  0
   -0.3114   -2.9665    0.0000 C   0  0
   -1.8032   -3.1233    0.0000 C   0  0
   -2.6837   -4.3363    0.0000 C   0  0
   -4.1755   -4.1795    0.0000 C   0  0
   -5.0572   -5.3930    0.0000 C   0  0
   -6.5490   -5.2363    0.0000 C   0  0
   -7.1591   -3.8659    0.0000 C   0  0
   -6.2774   -2.6524    0.0000 C   0  0
   -4.7856   -2.8092    0.0000 C   0  0
   -3.9040   -1.5957    0.0000 N   0  0
   -2.4133   -1.7530    0.0000 C   0  0
  1  2  2  0
  2  3  1  0
  3  4  2  0
  4  5  1  0
  5  6  2  0
  6  7  1  0
  7  8  2  0
  8  3  1  0
  8  9  1  0
  9 10  2  0
 10 11  1  0
 11  2  1  0
 11 12  1  0
 12 13  1  0
 13 14  2  0
 14 15  1  0
 15 16  2  0
 16 17  1  0
 17 18  2  0
 18 19  1  0
 19 20  2  0
 20 15  1  0
 20 21  1  0
 21 22  2  0
 22 13  1  0
 22 10  1  0
M  END
> <Smiles>
O=c1c2ccccc2cc2n1Cc1cc3ccccc3nc1-2

> <ID>
CHEMBL110203

> <standard_value>
66700

> <IC50_uM>
66.7

> <Activity>
No

> <pIC50>
4.175874166

> <BCI>
0

$$$$

  SciTegic03012415362D

 19 21  0  0  0  0            999 V2000
    2.5981   -1.5000    0.0000 C   0  0
    1.2990   -0.7500    0.0000 C   0  0
    1.2990    0.7500    0.0000 C   0  0
    0.0000    1.5000    0.0000 C   0  0
   -1.2990    0.7500    0.0000 C   0  0
   -2.7248    1.2135    0.0000 N   0  0
   -3.6065    0.0000    0.0000 C   0  0
   -5.1047   -0.0031    0.0000 N   0  0
   -5.8532   -1.3040    0.0000 C   0  0
   -7.3533   -1.3093    0.0000 C   0  0
   -8.1078   -0.0129    0.0000 C   0  0
   -8.0987   -2.6109    0.0000 C   0  0
   -7.3442   -3.9074    0.0000 C   0  0
   -5.8442   -3.9021    0.0000 C   0  0
   -5.0987   -2.6005    0.0000 C   0  0
   -3.5988   -2.5953    0.0000 C   0  0
   -2.7248   -1.2135    0.0000 S   0  0
   -1.2990   -0.7500    0.0000 C   0  0
    0.0000   -1.5000    0.0000 C   0  0
  1  2  1  0
  2  3  2  0
  3  4  1  0
  4  5  2  0
  5  6  1  0
  6  7  2  0
  7  8  1  0
  8  9  1  0
  9 10  2  0
 10 11  1  0
 10 12  1  0
 12 13  2  0
 13 14  1  0
 14 15  2  0
 15  9  1  0
 15 16  1  0
  7 17  1  0
 17 18  1  0
 18  5  1  0
 18 19  2  0
 19  2  1  0
M  END
> <Smiles>
Cc1ccc2nc(Nc3c(C)cccc3C)sc2c1

> <ID>
CHEMBL2042626

> <standard_value>
66800

> <IC50_uM>
66.8

> <Activity>
No

> <pIC50>
4.175223538

> <BCI>
0

$$$$

  SciTegic03012415362D

 25 27  0  0  0  0            999 V2000
    3.8983   -0.7459    0.0000 C   0  0
    2.6003   -1.4977    0.0000 O   0  0
    1.2990   -0.7500    0.0000 C   0  0
    1.2990    0.7500    0.0000 C   0  0
    0.0000    1.5000    0.0000 C   0  0
   -1.2990    0.7500    0.0000 C   0  0
   -2.5987    1.5004    0.0000 C   0  0
   -2.6012    3.0004    0.0000 C   0  0
   -3.9015    3.7484    0.0000 C   0  0
   -3.9038    5.2491    0.0000 C   0  0
   -5.1201    6.1051    0.0000 C   0  0
   -4.6611    7.5331    0.0000 C   0  0
   -3.1611    7.5379    0.0000 C   0  0
   -2.6931    6.1128    0.0000 N   0  0
   -1.2678    5.6453    0.0000 C   0  0
   -5.1993    2.9963    0.0000 C   0  0
   -6.5002    3.7446    0.0000 C   0  0
   -7.8005    4.4926    0.0000 N   0  0
   -5.1969    1.4963    0.0000 C   0  0
   -6.4947    0.7442    0.0000 O   0  0
   -3.8967    0.7484    0.0000 N   0  0
   -1.2990   -0.7500    0.0000 C   0  0
    0.0000   -1.5000    0.0000 C   0  0
   -0.0031   -3.0008    0.0000 O   0  0
   -1.3032   -3.7490    0.0000 C   0  0
  1  2  1  0
  2  3  1  0
  3  4  2  0
  4  5  1  0
  5  6  2  0
  6  7  1  0
  7  8  2  0
  8  9  1  0
  9 10  1  0
 10 11  2  0
 11 12  1  0
 12 13  2  0
 13 14  1  0
 14 10  1  0
 14 15  1  0
  9 16  2  0
 16 17  1  0
 17 18  3  0
 16 19  1  0
 19 20  2  0
 19 21  1  0
 21  7  1  0
  6 22  1  0
 22 23  2  0
 23  3  1  0
 23 24  1  0
 24 25  1  0
M  END
> <Smiles>
COc1ccc(-c2cc(-c3cccn3C)c(C#N)c(=O)[nH]2)cc1OC

> <ID>
CHEMBL2235177

> <standard_value>
67600

> <IC50_uM>
67.6

> <Activity>
No

> <pIC50>
4.170053304

> <BCI>
0

$$$$

  SciTegic03012415362D

 35 40  0  0  0  0            999 V2000
   -7.7178    8.6002    0.0000 C   0  0
   -6.4032    9.3225    0.0000 O   0  0
   -5.1191    8.5455    0.0000 C   0  0
   -3.8034    9.2659    0.0000 C   0  0
   -2.5217    8.4867    0.0000 C   0  0
   -2.5556    6.9870    0.0000 C   0  0
   -1.2744    6.2054    0.0000 N   0  0
    0.0424    6.9237    0.0000 C   0  0
    1.3229    6.1425    0.0000 C   0  0
    1.2866    4.6428    0.0000 N   0  0
    2.5664    3.8590    0.0000 C   0  0
    3.8846    4.5747    0.0000 N   0  0
    5.1636    3.7910    0.0000 C   0  0
    6.4825    4.5071    0.0000 C   0  0
    6.5242    6.0066    0.0000 C   0  0
    7.8436    6.7202    0.0000 C   0  0
    9.1213    5.9344    0.0000 C   0  0
    9.0797    4.4350    0.0000 C   0  0
    7.7603    3.7214    0.0000 N   0  0
    5.1243    2.2915    0.0000 N   0  0
    3.8068    1.5768    0.0000 C   0  0
    3.4566    0.1183    0.0000 S   0  0
    1.9598    0.0000    0.0000 C   0  0
    1.3858    1.3858    0.0000 C   0  0
    2.5278    2.3606    0.0000 C   0  0
    0.0000    1.9598    0.0000 C   0  0
   -1.3858    1.3858    0.0000 C   0  0
   -1.9598    0.0000    0.0000 C   0  0
   -1.3858   -1.3858    0.0000 C   0  0
    0.0000   -1.9598    0.0000 C   0  0
    1.3858   -1.3858    0.0000 C   0  0
   -0.0303    3.9246    0.0000 C   0  0
   -1.3108    4.7058    0.0000 C   0  0
   -3.8714    6.2667    0.0000 C   0  0
   -5.1531    7.0459    0.0000 C   0  0
  1  2  1  0
  2  3  1  0
  3  4  2  0
  4  5  1  0
  5  6  2  0
  6  7  1  0
  7  8  1  0
  8  9  1  0
  9 10  1  0
 10 11  1  0
 11 12  2  0
 12 13  1  0
 13 14  1  0
 14 15  2  0
 15 16  1  0
 16 17  2  0
 17 18  1  0
 18 19  2  0
 19 14  1  0
 13 20  2  0
 20 21  1  0
 21 22  1  0
 22 23  1  0
 23 24  2  0
 24 25  1  0
 25 11  1  0
 25 21  2  0
 24 26  1  0
 26 27  1  0
 27 28  1  0
 28 29  1  0
 29 30  1  0
 30 31  1  0
 31 23  1  0
 10 32  1  0
 32 33  1  0
 33  7  1  0
  6 34  1  0
 34 35  2  0
 35  3  1  0
M  END
> <Smiles>
COc1ccc(N2CCN(c3nc(-c4ccccn4)nc4sc5c(c34)CCCCCC5)CC2)cc1

> <ID>
CHEMBL2375388

> <standard_value>
67608.3

> <IC50_uM>
67.6083

> <Activity>
No

> <pIC50>
4.169999984

> <BCI>
0

$$$$

  SciTegic03012415362D

 46 51  0  0  0  0            999 V2000
    9.0946   -5.2463    0.0000 C   0  0
    9.0967   -3.7463    0.0000 O   0  0
    7.7985   -2.9932    0.0000 C   0  0
    7.7985   -1.4932    0.0000 C   0  0
    6.4994   -0.7432    0.0000 C   0  0
    5.2003   -1.4932    0.0000 C   0  0
    3.8990   -0.7455    0.0000 C   0  0
    2.6003   -1.4977    0.0000 N   0  0
    1.2990   -0.7500    0.0000 C   0  0
    1.2990    0.7500    0.0000 N   0  0
    0.0000    1.5000    0.0000 C   0  0
   -0.3115    2.9665    0.0000 N   0  0
   -1.8032    3.1233    0.0000 N   0  0
   -2.4133    1.7530    0.0000 C   0  0
   -3.8805    1.4409    0.0000 C   0  0
   -1.2990    0.7500    0.0000 N   0  0
   -1.2990   -0.7500    0.0000 C   0  0
   -2.5981   -1.5000    0.0000 O   0  0
    0.0000   -1.5000    0.0000 C   0  0
    0.0000   -3.0008    0.0000 S   0  0
    1.2993   -3.7504    0.0000 O   0  0
    0.0007   -4.5008    0.0000 O   0  0
   -1.2993   -3.7521    0.0000 N   0  0
   -1.2993   -5.2529    0.0000 N   0  0
   -2.5110   -6.1152    0.0000 C   0  0
   -3.9358   -5.6461    0.0000 O   0  0
   -2.0445   -7.5408    0.0000 C   0  0  3  0  0  0
   -2.9202   -8.7566    0.0000 C   0  0
   -2.3049  -10.1255    0.0000 N   0  0
   -3.1798  -11.3440    0.0000 C   0  0
   -2.5622  -12.7109    0.0000 C   0  0
   -1.0695  -12.8594    0.0000 O   0  0
   -0.1946  -11.6410    0.0000 C   0  0
   -0.8123  -10.2741    0.0000 C   0  0
   -0.5445   -7.5378    0.0000 S   0  0
   -0.0840   -6.1102    0.0000 C   0  0  3  0  0  0
    1.3396   -5.6351    0.0000 C   0  0
    1.7531   -4.1986    0.0000 C   0  0
    3.2092   -3.8382    0.0000 C   0  0
    4.2494   -4.9190    0.0000 C   0  0
    5.7070   -4.5613    0.0000 O   0  0
    6.7456   -5.6436    0.0000 C   0  0
    3.8335   -6.3602    0.0000 C   0  0
    2.3774   -6.7206    0.0000 C   0  0
    5.2004   -2.9933    0.0000 C   0  0
    6.4995   -3.7432    0.0000 C   0  0
  1  2  1  0
  2  3  1  0
  3  4  2  0
  4  5  1  0
  5  6  2  0
  6  7  1  0
  7  8  2  0
  8  9  1  0
  9 10  1  0
 10 11  2  0
 11 12  1  0
 12 13  1  0
 13 14  2  0
 14 15  1  0
 14 16  1  0
 16 11  1  0
 16 17  1  0
 17 18  2  0
 17 19  1  0
 19  9  2  0
 19 20  1  0
 20 21  2  0
 20 22  2  0
 20 23  1  0
 23 24  1  0
 24 25  1  0
 25 26  2  0
 25 27  1  0
 27 28  1  4
 28 29  1  0
 29 30  1  0
 30 31  1  0
 31 32  1  0
 32 33  1  0
 33 34  1  0
 34 29  1  0
 27 35  1  0
 35 36  1  0
 36 24  1  0
 36 37  1  4
 37 38  2  0
 38 39  1  0
 39 40  2  0
 40 41  1  0
 41 42  1  0
 40 43  1  0
 43 44  2  0
 44 37  1  0
  6 45  1  0
 45 46  2  0
 46  3  1  0
M  END
> <Smiles>
COc1ccc(/C=N/c2nc3[nH]nc(C)n3c(=O)c2S(=O)(=O)NN2C(=O)C(CN3CCOCC3)SC2c2ccc(OC)cc2)cc1

> <ID>
CHEMBL554399

> <standard_value>
75100

> <IC50_uM>
75.1

> <Activity>
No

> <pIC50>
4.124360063

> <BCI>
0

$$$$

  SciTegic03012415362D

 42 43  0  0  1  0            999 V2000
    3.2310  -17.7628    0.0000 C   0  0
    2.3519  -16.5475    0.0000 C   0  0
    2.9643  -15.1773    0.0000 C   0  0
    2.0846  -13.9613    0.0000 C   0  0
    2.6971  -12.5911    0.0000 C   0  0
    1.8174  -11.3750    0.0000 C   0  0
    2.4298  -10.0049    0.0000 C   0  0
    1.5502   -8.7888    0.0000 C   0  0
    2.1626   -7.4186    0.0000 C   0  0
    1.2830   -6.2026    0.0000 C   0  0
    1.8954   -4.8324    0.0000 C   0  0
    1.0157   -3.6164    0.0000 C   0  0
    1.6281   -2.2462    0.0000 C   0  0  1  0  0  0
    3.1202   -2.0921    0.0000 O   0  0
    0.7500   -1.0323    0.0000 C   0  0  1  0  0  0
    1.2135    0.3943    0.0000 C   0  0
    0.0000    1.2760    0.0000 C   0  0
   -1.2135    0.3943    0.0000 C   0  0  2  0  0  0
   -2.6391    0.8554    0.0000 C   0  0  2  0  0  0
   -3.7521   -0.1502    0.0000 O   0  0
   -2.9540    2.3228    0.0000 C   0  0
   -4.3820    2.7846    0.0000 C   0  0
   -4.6970    4.2520    0.0000 C   0  0
   -6.1249    4.7139    0.0000 C   0  0
   -6.4399    6.1813    0.0000 C   0  0
   -7.8679    6.6432    0.0000 C   0  0
   -8.1828    8.1106    0.0000 C   0  0
   -9.6108    8.5724    0.0000 C   0  0
   -9.9258   10.0398    0.0000 C   0  0
  -11.3537   10.5017    0.0000 C   0  0
  -11.6687   11.9691    0.0000 C   0  0
  -13.0967   12.4310    0.0000 C   0  0
  -13.4116   13.8984    0.0000 C   0  0
  -12.4033   14.9917    0.0000 C   0  0
  -13.1532   16.2908    0.0000 C   0  0  2  0  0  0
  -12.5465   17.6607    0.0000 C   0  0
  -13.4299   18.8730    0.0000 F   0  0
  -11.0550   17.8200    0.0000 F   0  0
  -14.6204   15.9790    0.0000 O   0  0
  -14.7773   14.4872    0.0000 C   0  0
  -16.0719   13.7296    0.0000 O   0  0
   -0.7500   -1.0323    0.0000 O   0  0
  1  2  1  0
  2  3  1  0
  3  4  1  0
  4  5  1  0
  5  6  1  0
  6  7  1  0
  7  8  1  0
  8  9  1  0
  9 10  1  0
 10 11  1  0
 11 12  1  0
 12 13  1  0
 13 14  1  6
 13 15  1  0
 15 16  1  6
 16 17  1  0
 18 17  1  1
 18 19  1  0
 19 20  1  6
 19 21  1  0
 21 22  1  0
 22 23  1  0
 23 24  1  0
 24 25  1  0
 25 26  1  0
 26 27  1  0
 27 28  1  0
 28 29  1  0
 29 30  1  0
 30 31  1  0
 31 32  1  0
 32 33  1  0
 33 34  2  0
 34 35  1  0
 35 36  1  1
 36 37  1  0
 36 38  1  0
 35 39  1  0
 39 40  1  0
 40 33  1  0
 40 41  2  0
 18 42  1  0
 42 15  1  0
M  END
> <Smiles>
CCCCCCCCCCCC[C@@H](O)[C@H]1CC[C@H]([C@H](O)CCCCCCCCCCCCC2=C[C@H](C(F)F)OC2=O)O1

> <ID>
CHEMBL1834284

> <standard_value>
79000

> <IC50_uM>
79

> <Activity>
No

> <pIC50>
4.102372909

> <BCI>
0

$$$$

  SciTegic03012415362D

 28 31  0  0  0  0            999 V2000
    6.4869   -6.7636    0.0000 N   0  5
    5.1894   -6.0109    0.0000 N   0  3
    3.8912   -5.2578    0.0000 N   0  0
    3.8933   -3.7570    0.0000 C   0  0
    2.5951   -3.0039    0.0000 C   0  0
    2.5973   -1.5031    0.0000 C   0  0
    1.2990   -0.7500    0.0000 N   0  0
    1.2990    0.7500    0.0000 C   0  0
    0.0000    1.5000    0.0000 C   0  0
   -1.2990    0.7500    0.0000 C   0  0
   -2.5981    1.5000    0.0000 C   0  0
   -3.8971    0.7500    0.0000 C   0  0
   -3.8971   -0.7500    0.0000 C   0  0
   -5.1953   -1.5031    0.0000 N   0  3
   -5.1932   -3.0031    0.0000 O   0  0
   -6.4957   -0.7554    0.0000 O   0  5
   -2.5981   -1.5000    0.0000 C   0  0
   -1.2990   -0.7500    0.0000 C   0  0
    0.0000   -1.5000    0.0000 C   0  0
    0.0000   -3.0000    0.0000 O   0  0
    0.3114    2.9665    0.0000 C   0  0
   -0.6924    4.0811    0.0000 O   0  0
    1.8032    3.1233    0.0000 C   0  0
    2.6837    4.3363    0.0000 C   0  0
    4.1755    4.1795    0.0000 C   0  0
    4.7856    2.8092    0.0000 C   0  0
    3.9040    1.5957    0.0000 C   0  0
    2.4133    1.7530    0.0000 C   0  0
  1  2  2  0
  2  3  2  0
  3  4  1  0
  4  5  1  0
  5  6  1  0
  6  7  1  0
  7  8  1  0
  8  9  2  0
  9 10  1  0
 10 11  2  0
 11 12  1  0
 12 13  2  0
 13 14  1  0
 14 15  2  0
 14 16  1  0
 13 17  1  0
 17 18  2  0
 18 10  1  0
 18 19  1  0
 19  7  1  0
 19 20  2  0
  9 21  1  0
 21 22  2  0
 21 23  1  0
 23 24  2  0
 24 25  1  0
 25 26  2  0
 26 27  1  0
 27 28  2  0
 28 23  1  0
 28  8  1  0
M  CHG  4   1  -1   2   1  14   1  16  -1
M  END
> <Smiles>
[N-]=[N+]=NCCCn1c2c(c3ccc([N+](=O)[O-])cc3c1=O)C(=O)c1ccccc1-2

> <ID>
CHEMBL123600

> <standard_value>
79400

> <IC50_uM>
79.4

> <Activity>
No

> <pIC50>
4.100179498

> <BCI>
0

$$$$

  SciTegic03012415362D

 41 42  0  0  1  0            999 V2000
    3.2310  -17.7628    0.0000 C   0  0
    2.3519  -16.5475    0.0000 C   0  0
    2.9643  -15.1773    0.0000 C   0  0
    2.0846  -13.9613    0.0000 C   0  0
    2.6971  -12.5911    0.0000 C   0  0
    1.8174  -11.3750    0.0000 C   0  0
    2.4298  -10.0049    0.0000 C   0  0
    1.5502   -8.7888    0.0000 C   0  0
    2.1626   -7.4186    0.0000 C   0  0
    1.2830   -6.2026    0.0000 C   0  0
    1.8954   -4.8324    0.0000 C   0  0
    1.0157   -3.6164    0.0000 C   0  0
    1.6281   -2.2462    0.0000 C   0  0  1  0  0  0
    3.1202   -2.0921    0.0000 O   0  0
    0.7500   -1.0323    0.0000 C   0  0  1  0  0  0
    1.2135    0.3943    0.0000 C   0  0
    0.0000    1.2760    0.0000 C   0  0
   -1.2135    0.3943    0.0000 C   0  0  2  0  0  0
   -2.6391    0.8554    0.0000 C   0  0  2  0  0  0
   -3.7521   -0.1502    0.0000 O   0  0
   -2.9540    2.3228    0.0000 C   0  0
   -4.3820    2.7846    0.0000 C   0  0
   -4.6970    4.2520    0.0000 C   0  0
   -6.1249    4.7139    0.0000 C   0  0
   -6.4399    6.1813    0.0000 C   0  0
   -7.8679    6.6432    0.0000 C   0  0
   -8.1828    8.1106    0.0000 C   0  0
   -9.6108    8.5724    0.0000 C   0  0
   -9.9258   10.0398    0.0000 C   0  0
  -11.3537   10.5017    0.0000 C   0  0
  -11.6687   11.9691    0.0000 C   0  0  1  0  0  0
  -10.5556   12.9747    0.0000 O   0  0
  -13.0967   12.4310    0.0000 C   0  0
  -13.4116   13.8984    0.0000 C   0  0
  -12.4033   14.9917    0.0000 C   0  0
  -13.1532   16.2908    0.0000 C   0  0  2  0  0  0
  -12.5430   17.6610    0.0000 C   0  0
  -14.6204   15.9790    0.0000 O   0  0
  -14.7773   14.4872    0.0000 C   0  0
  -16.0719   13.7296    0.0000 O   0  0
   -0.7500   -1.0323    0.0000 O   0  0
  1  2  1  0
  2  3  1  0
  3  4  1  0
  4  5  1  0
  5  6  1  0
  6  7  1  0
  7  8  1  0
  8  9  1  0
  9 10  1  0
 10 11  1  0
 11 12  1  0
 12 13  1  0
 13 14  1  6
 13 15  1  0
 15 16  1  6
 16 17  1  0
 18 17  1  1
 18 19  1  0
 19 20  1  6
 19 21  1  0
 21 22  1  0
 22 23  1  0
 23 24  1  0
 24 25  1  0
 25 26  1  0
 26 27  1  0
 27 28  1  0
 28 29  1  0
 29 30  1  0
 30 31  1  0
 31 32  1  6
 31 33  1  0
 33 34  1  0
 34 35  2  0
 35 36  1  0
 36 37  1  1
 36 38  1  0
 38 39  1  0
 39 34  1  0
 39 40  2  0
 18 41  1  0
 41 15  1  0
M  END
> <Smiles>
CCCCCCCCCCCC[C@@H](O)[C@H]1CC[C@H]([C@H](O)CCCCCCCCCC[C@@H](O)CC2=C[C@H](C)OC2=O)O1

> <ID>
CHEMBL81089

> <standard_value>
88000

> <IC50_uM>
88

> <Activity>
No

> <pIC50>
4.055517328

> <BCI>
0

$$$$

  SciTegic03012415362D

 22 24  0  0  0  0            999 V2000
    4.2566    0.5871    0.0000 C   0  0
    3.9511   -0.8815    0.0000 N   0  0
    4.9531   -1.9978    0.0000 C   0  0
    4.2010   -3.2956    0.0000 C   0  0
    2.7343   -2.9815    0.0000 C   0  0
    2.5987   -1.5004    0.0000 C   0  0
    1.2990   -0.7500    0.0000 C   0  0
    1.2990    0.7500    0.0000 C   0  0
    0.0000    1.5000    0.0000 C   0  0
    0.0000    3.0008    0.0000 C   0  0
    1.2978    3.7529    0.0000 C   0  0
    1.2954    5.2529    0.0000 C   0  0
   -0.0048    6.0009    0.0000 C   0  0
   -0.0072    7.5009    0.0000 Br  0  0
   -1.3026    5.2488    0.0000 C   0  0
   -1.3002    3.7488    0.0000 C   0  0
   -1.2990    0.7500    0.0000 N   0  0
   -1.2990   -0.7500    0.0000 C   0  0
   -2.5981   -1.5000    0.0000 O   0  0
    0.0000   -1.5000    0.0000 C   0  0
    0.0000   -3.0008    0.0000 C   0  0
    0.0000   -4.5008    0.0000 N   0  0
  1  2  1  0
  2  3  1  0
  3  4  2  0
  4  5  1  0
  5  6  2  0
  6  2  1  0
  6  7  1  0
  7  8  1  0
  8  9  2  0
  9 10  1  0
 10 11  2  0
 11 12  1  0
 12 13  2  0
 13 14  1  0
 13 15  1  0
 15 16  2  0
 16 10  1  0
  9 17  1  0
 17 18  1  0
 18 19  2  0
 18 20  1  0
 20  7  2  0
 20 21  1  0
 21 22  3  0
M  END
> <Smiles>
Cn1cccc1-c1cc(-c2ccc(Br)cc2)[nH]c(=O)c1C#N

> <ID>
CHEMBL2235176

> <standard_value>
89100

> <IC50_uM>
89.1

> <Activity>
No

> <pIC50>
4.050122296

> <BCI>
0

$$$$

  SciTegic03012415362D

 23 25  0  0  0  0            999 V2000
   -3.7702  -11.3982    0.0000 C   0  0
   -4.2355   -9.9722    0.0000 O   0  0
   -3.2334   -8.8550    0.0000 C   0  0
   -1.7662   -9.1671    0.0000 C   0  0
   -0.7624   -8.0525    0.0000 C   0  0
   -1.2256   -6.6258    0.0000 C   0  0
   -0.2234   -5.5086    0.0000 N   0  0
   -0.6890   -4.0818    0.0000 C   0  0
   -2.1567   -3.7722    0.0000 O   0  0
    0.3114   -2.9665    0.0000 N   0  0
    1.8032   -3.1233    0.0000 N   0  0
    2.4133   -1.7530    0.0000 C   0  0
    3.8805   -1.4410    0.0000 N   0  0
    1.2990   -0.7500    0.0000 C   0  0
    1.2990    0.7500    0.0000 C   0  0
    0.0000    1.5000    0.0000 C   0  0
   -1.2990    0.7500    0.0000 C   0  0
   -1.2990   -0.7500    0.0000 C   0  0
    0.0000   -1.5000    0.0000 C   0  0
   -2.6928   -6.3138    0.0000 C   0  0
   -3.6967   -7.4283    0.0000 C   0  0
   -5.1640   -7.1130    0.0000 O   0  0
   -5.6253   -5.6857    0.0000 C   0  0
  1  2  1  0
  2  3  1  0
  3  4  2  0
  4  5  1  0
  5  6  2  0
  6  7  1  0
  7  8  1  0
  8  9  2  0
  8 10  1  0
 10 11  1  0
 11 12  2  0
 12 13  1  0
 12 14  1  0
 14 15  2  0
 15 16  1  0
 16 17  2  0
 17 18  1  0
 18 19  2  0
 19 14  1  0
 19 10  1  0
  6 20  1  0
 20 21  2  0
 21  3  1  0
 21 22  1  0
 22 23  1  0
M  END
> <Smiles>
COc1ccc(NC(=O)n2nc(N)c3ccccc32)cc1OC

> <ID>
CHEMBL462842

> <standard_value>
95900

> <IC50_uM>
95.9

> <Activity>
No

> <pIC50>
4.018181393

> <BCI>
0

$$$$

  SciTegic03012415362D

 24 26  0  0  0  0            999 V2000
    3.8926   -3.7566    0.0000 C   0  0
    2.5951   -3.0039    0.0000 C   0  0
    2.5973   -1.5031    0.0000 C   0  0
    1.2990   -0.7500    0.0000 C   0  0
    1.2990    0.7500    0.0000 C   0  0
    0.0000    1.5000    0.0000 C   0  0
    0.0000    3.0000    0.0000 O   0  0
   -1.2990    0.7500    0.0000 C   0  0
   -2.5981    1.5000    0.0000 C   0  0
   -2.6012    3.0008    0.0000 O   0  0
   -3.9013    3.7490    0.0000 C   0  0
   -3.8971    0.7500    0.0000 C   0  0
   -5.1962    1.5000    0.0000 C   0  0
   -5.1993    3.0008    0.0000 O   0  0
   -6.4994    3.7489    0.0000 C   0  0
   -6.4952    0.7500    0.0000 C   0  0
   -6.4952   -0.7500    0.0000 C   0  0
   -7.7934   -1.5031    0.0000 O   0  0
   -7.7912   -3.0031    0.0000 C   0  0
   -5.1961   -1.5000    0.0000 C   0  0
   -3.8971   -0.7500    0.0000 C   0  0
   -2.5981   -1.5000    0.0000 C   0  0
   -1.2990   -0.7500    0.0000 C   0  0
    0.0000   -1.5000    0.0000 O   0  0
  1  2  1  0
  2  3  1  0
  3  4  1  0
  4  5  2  0
  5  6  1  0
  6  7  2  0
  6  8  1  0
  8  9  2  0
  9 10  1  0
 10 11  1  0
  9 12  1  0
 12 13  2  0
 13 14  1  0
 14 15  1  0
 13 16  1  0
 16 17  2  0
 17 18  1  0
 18 19  1  0
 17 20  1  0
 20 21  2  0
 21 12  1  0
 21 22  1  0
 22 23  2  0
 23  8  1  0
 23 24  1  0
 24  4  1  0
M  END
> <Smiles>
CCCc1cc(=O)c2c(OC)c3c(OC)cc(OC)cc3cc2o1

> <ID>
CHEMBL251900

> <standard_value>
100000

> <IC50_uM>
100

> <Activity>
No

> <pIC50>
4

> <BCI>
0

$$$$

  SciTegic03012415362D

 40 43  0  0  1  0            999 V2000
   -0.1126   -2.9000    0.0000 C   0  0
   -0.1200   -1.4000    0.0000 C   0  0
   -1.4400   -0.6500    0.0000 C   0  0  1  0  0  0
   -2.7407   -1.3987    0.0000 O   0  0
   -2.7438   -2.8995    0.0000 C   0  0
   -1.4461   -3.6518    0.0000 C   0  0
   -4.0440   -3.6476    0.0000 O   0  0
   -1.4400    0.8300    0.0000 C   0  0
   -0.1200    1.5800    0.0000 C   0  0
    1.1700    0.8300    0.0000 C   0  0  2  0  0  0
    0.8567    2.2969    0.0000 C   0  0
    1.1700   -0.6500    0.0000 C   0  0  2  0  0  0
    2.0400   -1.8500    0.0000 C   0  0
    3.4000   -2.3100    0.0000 C   0  0  2  0  0  0
    4.8200   -1.8500    0.0000 C   0  0
    5.6900   -0.6900    0.0000 C   0  0  2  0  0  0
    7.1011   -1.2165    0.0000 O   0  0
    7.3500   -2.6966    0.0000 C   0  0
    6.1929   -3.6512    0.0000 C   0  0
    8.7550   -3.2217    0.0000 O   0  0
    5.6900    0.8800    0.0000 C   0  0
    7.1130    1.3543    0.0000 C   0  0
    4.8200    2.0400    0.0000 C   0  0
    3.4000    2.5000    0.0000 C   0  0  1  0  0  0
    3.3903    4.0000    0.0000 O   0  0
    2.0400    2.0400    0.0000 C   0  0  2  0  0  0
    1.1661    3.2674    0.0000 O   0  0
    1.7891    4.6328    0.0000 C   0  0
    3.2823    4.7754    0.0000 O   0  0
    0.9189    5.8556    0.0000 C   0  0
    1.5419    7.2210    0.0000 C   0  0
    0.6717    8.4438    0.0000 C   0  0
    1.2924    9.8094    0.0000 C   0  0
    0.4202   11.0298    0.0000 C   0  0
   -1.0727   10.8846    0.0000 C   0  0
   -1.6935    9.5191    0.0000 C   0  0
   -0.8213    8.2987    0.0000 C   0  0
    3.3800    0.0300    0.0000 C   0  0
    2.3170   -1.0283    0.0000 C   0  0
    3.1195    1.5072    0.0000 C   0  0
  1  2  2  0
  2  3  1  0
  3  4  1  1
  4  5  1  0
  5  6  1  0
  5  7  2  0
  3  8  1  0
  8  9  1  0
  9 10  1  0
 10 11  1  6
 10 12  1  0
 12  2  1  0
 12 13  1  6
 14 13  1  1
 14 15  1  0
 15 16  1  0
 16 17  1  1
 17 18  1  0
 18 19  1  0
 18 20  2  0
 16 21  1  0
 21 22  1  0
 21 23  2  0
 23 24  1  0
 24 25  1  6
 24 26  1  0
 26 10  1  0
 26 27  1  1
 27 28  1  0
 28 29  2  0
 28 30  1  0
 30 31  2  0
 31 32  1  0
 32 33  2  0
 33 34  1  0
 34 35  2  0
 35 36  1  0
 36 37  2  0
 37 32  1  0
 23 38  1  0
 38 14  1  0
 38 39  1  0
 38 40  1  0
M  END
> <Smiles>
C=C1[C@@H](OC(C)=O)CC[C@]2(C)[C@@H]1C[C@@H]1C[C@H](OC(C)=O)C(C)=C([C@@H](O)[C@@H]2OC(=O)/C=C/c2ccccc2)C1(C)C

> <ID>
CHEMBL506312

> <standard_value>
100000

> <IC50_uM>
100

> <Activity>
No

> <pIC50>
4

> <BCI>
0

$$$$

  SciTegic03012415362D

 11 11  0  0  0  0            999 V2000
    3.8912   -5.2570    0.0000 C   0  0
    3.8933   -3.7570    0.0000 N   0  0
    2.5951   -3.0039    0.0000 C   0  0
    1.2948   -3.7516    0.0000 O   0  0
    2.5973   -1.5031    0.0000 N   0  0
    1.2990   -0.7500    0.0000 C   0  0
    1.2990    0.7500    0.0000 C   0  0
    0.0000    1.5000    0.0000 C   0  0
   -1.2990    0.7500    0.0000 C   0  0
   -1.2990   -0.7500    0.0000 C   0  0
    0.0000   -1.5000    0.0000 C   0  0
  1  2  1  0
  2  3  1  0
  3  4  2  0
  3  5  1  0
  5  6  1  0
  6  7  2  0
  7  8  1  0
  8  9  2  0
  9 10  1  0
 10 11  2  0
 11  6  1  0
M  END
> <Smiles>
CNC(=O)Nc1ccccc1

> <ID>
CHEMBL584381

> <standard_value>
100000

> <IC50_uM>
100

> <Activity>
No

> <pIC50>
4

> <BCI>
0

$$$$

  SciTegic03012415362D

 54 57  0  0  1  0            999 V2000
    6.6597  -36.7506    0.0000 C   0  0
    8.0885  -36.2939    0.0000 C   0  0  1  0  0  0
    8.5589  -34.8696    0.0000 C   0  0
   10.0460  -34.8945    0.0000 C   0  0
   10.9315  -33.6828    0.0000 C   0  0
   10.3258  -32.3096    0.0000 C   0  0
   11.2113  -31.0979    0.0000 C   0  0
   10.6056  -29.7248    0.0000 C   0  0
   11.4912  -28.5130    0.0000 C   0  0
   10.8854  -27.1399    0.0000 C   0  0
   11.7710  -25.9282    0.0000 C   0  0
   11.1652  -24.5550    0.0000 C   0  0
   12.0508  -23.3433    0.0000 C   0  0
   11.4451  -21.9701    0.0000 C   0  0
   12.3306  -20.7584    0.0000 C   0  0
   11.7249  -19.3852    0.0000 C   0  0
   12.6104  -18.1735    0.0000 C   0  0  1  0  0  0
   14.1017  -18.3350    0.0000 O   0  0
   12.0057  -16.8027    0.0000 C   0  0  1  0  0  0
   12.7575  -15.5047    0.0000 C   0  0
   11.7553  -14.3886    0.0000 C   0  0
   10.4030  -15.0078    0.0000 C   0  0  2  0  0  0
    9.1033  -14.2574    0.0000 C   0  0  2  0  0  0
    7.8045  -15.0078    0.0000 O   0  0
    9.1023  -12.7566    0.0000 C   0  0
    7.8026  -12.0062    0.0000 C   0  0
    7.8016  -10.5053    0.0000 C   0  0
    6.5019   -9.7549    0.0000 C   0  0
    6.5009   -8.2541    0.0000 C   0  0
    5.2012   -7.5037    0.0000 C   0  0
    5.2002   -6.0029    0.0000 C   0  0
    3.9005   -5.2525    0.0000 C   0  0
    3.8995   -3.7516    0.0000 C   0  0
    2.5997   -3.0012    0.0000 N   0  0
    2.5988   -1.5004    0.0000 S   0  0
    3.8982   -2.2498    0.0000 O   0  0
    3.8976   -0.7500    0.0000 O   0  0
    1.2990   -0.7500    0.0000 C   0  0
    1.2990    0.7500    0.0000 C   0  0
    0.0000    1.5000    0.0000 C   0  0
   -1.2990    0.7500    0.0000 C   0  0
   -1.2990   -0.7500    0.0000 C   0  0
   -2.5981   -1.5000    0.0000 C   0  0
   -3.8994   -0.7523    0.0000 N   0  0
   -5.1973   -1.5041    0.0000 C   0  0
   -3.9020    0.7477    0.0000 C   0  0
   -2.5981   -3.0000    0.0000 C   0  0
   -1.2990   -3.7500    0.0000 C   0  0
    0.0000   -3.0000    0.0000 C   0  0
    0.0000   -1.5000    0.0000 C   0  0
   10.5389  -16.4889    0.0000 O   0  0
   10.5155  -36.3057    0.0000 C   0  0
   11.9426  -36.7677    0.0000 O   0  0
    9.2977  -37.1815    0.0000 O   0  0
  2  1  1  1
  2  3  1  0
  3  4  2  0
  4  5  1  0
  5  6  1  0
  6  7  1  0
  7  8  1  0
  8  9  1  0
  9 10  1  0
 10 11  1  0
 11 12  1  0
 12 13  1  0
 13 14  1  0
 14 15  1  0
 15 16  1  0
 16 17  1  0
 17 18  1  6
 17 19  1  0
 19 20  1  6
 20 21  1  0
 22 21  1  1
 22 23  1  0
 23 24  1  6
 23 25  1  0
 25 26  1  0
 26 27  1  0
 27 28  1  0
 28 29  1  0
 29 30  1  0
 30 31  1  0
 31 32  1  0
 32 33  1  0
 33 34  1  0
 34 35  1  0
 35 36  2  0
 35 37  2  0
 35 38  1  0
 38 39  2  0
 39 40  1  0
 40 41  2  0
 41 42  1  0
 42 43  2  0
 43 44  1  0
 44 45  1  0
 44 46  1  0
 43 47  1  0
 47 48  2  0
 48 49  1  0
 49 50  2  0
 50 38  1  0
 50 42  1  0
 22 51  1  0
 51 19  1  0
  4 52  1  0
 52 53  2  0
 52 54  1  0
 54  2  1  0
M  END
> <Smiles>
C[C@H]1C=C(CCCCCCCCCCCC[C@@H](O)[C@H]2CC[C@H]([C@H](O)CCCCCCCCCNS(=O)(=O)c3cccc4c(N(C)C)cccc34)O2)C(=O)O1

> <ID>
CHEMBL1288628

> <standard_value>
100000

> <IC50_uM>
100

> <Activity>
No

> <pIC50>
4

> <BCI>
0

$$$$

  SciTegic03012415362D

 40 41  0  0  1  0            999 V2000
    3.2310  -17.7628    0.0000 C   0  0
    2.3519  -16.5475    0.0000 C   0  0
    2.9643  -15.1773    0.0000 C   0  0
    2.0846  -13.9613    0.0000 C   0  0
    2.6971  -12.5911    0.0000 C   0  0
    1.8174  -11.3750    0.0000 C   0  0
    2.4298  -10.0049    0.0000 C   0  0
    1.5502   -8.7888    0.0000 C   0  0
    2.1626   -7.4186    0.0000 C   0  0
    1.2830   -6.2026    0.0000 C   0  0
    1.8954   -4.8324    0.0000 C   0  0
    1.0157   -3.6164    0.0000 C   0  0
    1.6281   -2.2462    0.0000 C   0  0  1  0  0  0
    3.1202   -2.0921    0.0000 O   0  0
    0.7500   -1.0323    0.0000 C   0  0  1  0  0  0
    1.2135    0.3943    0.0000 C   0  0
    0.0000    1.2760    0.0000 C   0  0
   -1.2135    0.3943    0.0000 C   0  0  2  0  0  0
   -2.6391    0.8554    0.0000 C   0  0  2  0  0  0
   -3.7521   -0.1502    0.0000 O   0  0
   -2.9540    2.3228    0.0000 C   0  0
   -4.3820    2.7846    0.0000 C   0  0
   -4.6970    4.2520    0.0000 C   0  0
   -6.1249    4.7139    0.0000 C   0  0
   -6.4399    6.1813    0.0000 C   0  0
   -7.8679    6.6432    0.0000 C   0  0
   -8.1828    8.1106    0.0000 C   0  0
   -9.6108    8.5724    0.0000 C   0  0
   -9.9258   10.0398    0.0000 C   0  0
  -11.3537   10.5017    0.0000 C   0  0
  -11.6687   11.9691    0.0000 O   0  0
  -13.0967   12.4310    0.0000 C   0  0
  -14.2097   11.4254    0.0000 O   0  0
  -13.4116   13.8984    0.0000 C   0  0
  -12.4033   14.9917    0.0000 C   0  0
  -13.1532   16.2908    0.0000 C   0  0
  -14.6204   15.9790    0.0000 N   0  0
  -14.7773   14.4872    0.0000 N   0  0
  -16.0719   13.7296    0.0000 C   0  0
   -0.7500   -1.0323    0.0000 O   0  0
  1  2  1  0
  2  3  1  0
  3  4  1  0
  4  5  1  0
  5  6  1  0
  6  7  1  0
  7  8  1  0
  8  9  1  0
  9 10  1  0
 10 11  1  0
 11 12  1  0
 12 13  1  0
 13 14  1  6
 13 15  1  0
 15 16  1  6
 16 17  1  0
 18 17  1  1
 18 19  1  0
 19 20  1  6
 19 21  1  0
 21 22  1  0
 22 23  1  0
 23 24  1  0
 24 25  1  0
 25 26  1  0
 26 27  1  0
 27 28  1  0
 28 29  1  0
 29 30  1  0
 30 31  1  0
 31 32  1  0
 32 33  2  0
 32 34  1  0
 34 35  2  0
 35 36  1  0
 36 37  2  0
 37 38  1  0
 38 34  1  0
 38 39  1  0
 18 40  1  0
 40 15  1  0
M  END
> <Smiles>
CCCCCCCCCCCC[C@@H](O)[C@H]1CC[C@H]([C@H](O)CCCCCCCCCCOC(=O)c2ccnn2C)O1

> <ID>
CHEMBL2381624

> <standard_value>
100000

> <IC50_uM>
100

> <Activity>
No

> <pIC50>
4

> <BCI>
0

$$$$

  SciTegic03012415362D

 40 41  0  0  1  0            999 V2000
    3.2310  -17.7628    0.0000 C   0  0
    2.3519  -16.5475    0.0000 C   0  0
    2.9643  -15.1773    0.0000 C   0  0
    2.0846  -13.9613    0.0000 C   0  0
    2.6971  -12.5911    0.0000 C   0  0
    1.8174  -11.3750    0.0000 C   0  0
    2.4298  -10.0049    0.0000 C   0  0
    1.5502   -8.7888    0.0000 C   0  0
    2.1626   -7.4186    0.0000 C   0  0
    1.2830   -6.2026    0.0000 C   0  0
    1.8954   -4.8324    0.0000 C   0  0
    1.0157   -3.6164    0.0000 C   0  0
    1.6281   -2.2462    0.0000 C   0  0  1  0  0  0
    3.1202   -2.0921    0.0000 O   0  0
    0.7500   -1.0323    0.0000 C   0  0  1  0  0  0
    1.2135    0.3943    0.0000 C   0  0
    0.0000    1.2760    0.0000 C   0  0
   -1.2135    0.3943    0.0000 C   0  0  2  0  0  0
   -2.6391    0.8554    0.0000 C   0  0  2  0  0  0
   -3.7521   -0.1502    0.0000 O   0  0
   -2.9540    2.3228    0.0000 C   0  0
   -4.3820    2.7846    0.0000 C   0  0
   -4.6970    4.2520    0.0000 C   0  0
   -6.1249    4.7139    0.0000 C   0  0
   -6.4399    6.1813    0.0000 C   0  0
   -7.8679    6.6432    0.0000 C   0  0
   -8.1828    8.1106    0.0000 C   0  0
   -9.6108    8.5724    0.0000 C   0  0
   -9.9258   10.0398    0.0000 C   0  0
  -11.3537   10.5017    0.0000 C   0  0
  -11.6687   11.9691    0.0000 C   0  0
  -10.5556   12.9747    0.0000 O   0  0
  -13.0967   12.4310    0.0000 N   0  0
  -13.4116   13.8984    0.0000 C   0  0
  -12.4033   14.9917    0.0000 C   0  0
  -13.1532   16.2908    0.0000 C   0  0
  -14.6204   15.9790    0.0000 N   0  0
  -14.7773   14.4872    0.0000 N   0  0
  -16.0719   13.7296    0.0000 C   0  0
   -0.7500   -1.0323    0.0000 O   0  0
  1  2  1  0
  2  3  1  0
  3  4  1  0
  4  5  1  0
  5  6  1  0
  6  7  1  0
  7  8  1  0
  8  9  1  0
  9 10  1  0
 10 11  1  0
 11 12  1  0
 12 13  1  0
 13 14  1  6
 13 15  1  0
 15 16  1  6
 16 17  1  0
 18 17  1  1
 18 19  1  0
 19 20  1  6
 19 21  1  0
 21 22  1  0
 22 23  1  0
 23 24  1  0
 24 25  1  0
 25 26  1  0
 26 27  1  0
 27 28  1  0
 28 29  1  0
 29 30  1  0
 30 31  1  0
 31 32  2  0
 31 33  1  0
 33 34  1  0
 34 35  2  0
 35 36  1  0
 36 37  2  0
 37 38  1  0
 38 34  1  0
 38 39  1  0
 18 40  1  0
 40 15  1  0
M  END
> <Smiles>
CCCCCCCCCCCC[C@@H](O)[C@H]1CC[C@H]([C@H](O)CCCCCCCCCCC(=O)Nc2ccnn2C)O1

> <ID>
CHEMBL2381623

> <standard_value>
100000

> <IC50_uM>
100

> <Activity>
No

> <pIC50>
4

> <BCI>
0

$$$$

  SciTegic03012415362D

 25 27  0  0  0  0            999 V2000
    2.6030   -2.9977    0.0000 O   0  0
    2.6003   -1.4977    0.0000 C   0  0
    3.8990   -0.7455    0.0000 N   0  0
    5.2003   -1.4932    0.0000 O   0  0
    6.4990   -0.7409    0.0000 C   0  0
    7.8003   -1.4887    0.0000 C   0  0
    9.2211   -1.4431    0.0000 C   0  0
    8.4711   -2.7421    0.0000 C   0  0
    1.2990   -0.7500    0.0000 C   0  0
    1.2990    0.7500    0.0000 C   0  0
    0.0000    1.5000    0.0000 C   0  0
   -1.2990    0.7500    0.0000 C   0  0
   -2.5981    1.5000    0.0000 F   0  0
   -1.2990   -0.7500    0.0000 C   0  0
   -2.5981   -1.5000    0.0000 F   0  0
    0.0000   -1.5000    0.0000 C   0  0
    0.0031   -3.0008    0.0000 N   0  0
   -1.2946   -3.7547    0.0000 C   0  0
   -2.5943   -3.0056    0.0000 C   0  0
   -3.8928   -3.7565    0.0000 C   0  0
   -3.8918   -5.2565    0.0000 C   0  0
   -5.1904   -6.0073    0.0000 I   0  0
   -2.5923   -6.0056    0.0000 C   0  0
   -1.2937   -5.2548    0.0000 C   0  0
    0.0058   -6.0039    0.0000 Cl  0  0
  1  2  2  0
  2  3  1  0
  3  4  1  0
  4  5  1  0
  5  6  1  0
  6  7  1  0
  7  8  1  0
  8  6  1  0
  2  9  1  0
  9 10  2  0
 10 11  1  0
 11 12  2  0
 12 13  1  0
 12 14  1  0
 14 15  1  0
 14 16  2  0
 16  9  1  0
 16 17  1  0
 17 18  1  0
 18 19  2  0
 19 20  1  0
 20 21  2  0
 21 22  1  0
 21 23  1  0
 23 24  2  0
 24 18  1  0
 24 25  1  0
M  END
> <Smiles>
O=C(NOCC1CC1)c1ccc(F)c(F)c1Nc1ccc(I)cc1Cl

> <ID>
CHEMBL105442

> <standard_value>
20517.23

> <IC50_uM>
20.51723

> <Activity>
No

> <pIC50>
4.687881273

> <BCI>
0

$$$$

  SciTegic03012415362D

 22 23  0  0  0  0            999 V2000
    2.5981   -1.5000    0.0000 C   0  0
    1.2990   -0.7500    0.0000 C   0  0
    1.2990    0.7500    0.0000 C   0  0
    0.0000    1.5000    0.0000 C   0  0
   -0.0031    3.0008    0.0000 N   0  3
   -1.3032    3.7490    0.0000 O   0  0
    1.2946    3.7531    0.0000 O   0  5
   -1.2990    0.7500    0.0000 C   0  0
   -1.2990   -0.7500    0.0000 C   0  0
    0.0000   -1.5000    0.0000 C   0  0
   -0.0031   -3.0008    0.0000 N   0  0
   -1.3039   -3.7494    0.0000 S   0  0
   -2.6016   -2.9971    0.0000 O   0  0
   -1.3015   -2.2494    0.0000 O   0  0
   -1.3070   -5.2502    0.0000 C   0  0
   -0.0095   -6.0029    0.0000 C   0  0
   -0.0126   -7.5029    0.0000 C   0  0
    1.2849   -8.2556    0.0000 Cl  0  0
   -1.3132   -8.2502    0.0000 C   0  0
   -2.6106   -7.4975    0.0000 C   0  0
   -2.6076   -5.9975    0.0000 C   0  0
   -3.9051   -5.2449    0.0000 Cl  0  0
  1  2  1  0
  2  3  2  0
  3  4  1  0
  4  5  1  0
  5  6  2  0
  5  7  1  0
  4  8  2  0
  8  9  1  0
  9 10  2  0
 10  2  1  0
 10 11  1  0
 11 12  1  0
 12 13  2  0
 12 14  2  0
 12 15  1  0
 15 16  2  0
 16 17  1  0
 17 18  1  0
 17 19  2  0
 19 20  1  0
 20 21  2  0
 21 15  1  0
 21 22  1  0
M  CHG  2   5   1   7  -1
M  END
> <Smiles>
Cc1cc([N+](=O)[O-])ccc1NS(=O)(=O)c1cc(Cl)ccc1Cl

> <ID>
CHEMBL2363137

> <standard_value>
21009.09

> <IC50_uM>
21.00909

> <Activity>
No

> <pIC50>
4.677592758

> <BCI>
0

$$$$

  SciTegic03012415362D

 30 33  0  0  1  0            999 V2000
    2.5981   -1.5000    0.0000 C   0  0
    1.2990   -0.7500    0.0000 C   0  0
    1.2990    0.7500    0.0000 C   0  0
    0.0000    1.5000    0.0000 C   0  0
    0.0020    3.0008    0.0000 C   0  0  1  0  0  0
    1.3023    3.7487    0.0000 C   0  0
   -1.2963    3.7538    0.0000 N   0  0
   -1.2942    5.2546    0.0000 C   0  0
    0.0074    6.0004    0.0000 C   0  0
    0.0124    7.5003    0.0000 C   0  0
   -1.2841    8.2547    0.0000 C   0  0
   -2.5856    7.5091    0.0000 C   0  0
   -2.5907    6.0091    0.0000 C   0  0
   -3.8946    5.2658    0.0000 C   0  0
   -5.1900    6.0221    0.0000 O   0  0
   -3.9023    3.7658    0.0000 O   0  0
   -1.2990    0.7500    0.0000 C   0  0
   -2.5981    1.5000    0.0000 N   0  0
   -3.8971    0.7500    0.0000 C   0  0
   -5.1968    1.5003    0.0000 N   0  0
   -5.1993    3.0004    0.0000 C   0  0
   -6.4995    3.7483    0.0000 C   0  0
   -7.7974    2.9963    0.0000 O   0  0
   -7.7950    1.4963    0.0000 C   0  0
   -6.4948    0.7483    0.0000 C   0  0
   -3.8971   -0.7500    0.0000 C   0  0
   -2.5981   -1.5000    0.0000 C   0  0
   -2.5981   -3.0000    0.0000 O   0  0
   -1.2990   -0.7500    0.0000 N   0  0
    0.0000   -1.5000    0.0000 C   0  0
  1  2  1  0
  2  3  1  0
  3  4  2  0
  4  5  1  0
  5  6  1  6
  5  7  1  0
  7  8  1  0
  8  9  2  0
  9 10  1  0
 10 11  2  0
 11 12  1  0
 12 13  2  0
 13  8  1  0
 13 14  1  0
 14 15  2  0
 14 16  1  0
  4 17  1  0
 17 18  2  0
 18 19  1  0
 19 20  1  0
 20 21  1  0
 21 22  1  0
 22 23  1  0
 23 24  1  0
 24 25  1  0
 25 20  1  0
 19 26  2  0
 26 27  1  0
 27 28  2  0
 27 29  1  0
 29 17  1  0
 29 30  1  0
 30  2  2  0
M  END
> <Smiles>
Cc1cc([C@@H](C)Nc2ccccc2C(=O)O)c2nc(N3CCOCC3)cc(=O)n2c1

> <ID>
CHEMBL2165191

> <standard_value>
21761.01

> <IC50_uM>
21.76101

> <Activity>
No

> <pIC50>
4.662320951

> <BCI>
0

$$$$

  SciTegic03012415362D

 25 28  0  0  0  0            999 V2000
   -0.6923   -4.0811    0.0000 C   0  0
    0.3114   -2.9665    0.0000 N   0  0
    1.8032   -3.1233    0.0000 C   0  0
    2.4133   -1.7530    0.0000 C   0  0  3  0  0  0
    3.8813   -1.4408    0.0000 C   0  0
    5.0460   -2.3579    0.0000 C   0  0  3  0  0  0
    4.9973   -3.8578    0.0000 C   0  0
    6.3342   -4.5421    0.0000 C   0  0
    6.4049   -6.0405    0.0000 C   0  0
    5.1427   -6.8509    0.0000 C   0  0
    5.2134   -8.3492    0.0000 Cl  0  0
    3.8097   -6.1630    0.0000 C   0  0
    3.7390   -4.6647    0.0000 C   0  0
    2.4063   -3.9763    0.0000 Cl  0  0
    6.2823   -1.5084    0.0000 C   0  0
    7.6962   -2.0093    0.0000 O   0  0
    5.8565   -0.0701    0.0000 N   0  0
    4.3570   -0.0307    0.0000 C   0  0
    3.4982    1.1992    0.0000 O   0  0
    1.2990   -0.7500    0.0000 C   0  0
    1.2990    0.7500    0.0000 C   0  0
    0.0000    1.5000    0.0000 C   0  0
   -1.2990    0.7500    0.0000 C   0  0
   -1.2990   -0.7500    0.0000 C   0  0
    0.0000   -1.5000    0.0000 C   0  0
  1  2  1  0
  2  3  1  0
  3  4  2  0
  4  5  1  0
  5  6  2  0
  6  7  1  0
  7  8  2  0
  8  9  1  0
  9 10  2  0
 10 11  1  0
 10 12  1  0
 12 13  2  0
 13  7  1  0
 13 14  1  0
  6 15  1  4
 15 16  2  0
 15 17  1  0
 17 18  1  0
 18  5  1  0
 18 19  2  0
  4 20  1  4
 20 21  2  0
 21 22  1  0
 22 23  2  0
 23 24  1  0
 24 25  2  0
 25 20  1  0
 25  2  1  0
M  END
> <Smiles>
Cn1cc(C2=C(c3ccc(Cl)cc3Cl)C(=O)NC2=O)c2ccccc21

> <ID>
CHEMBL102714

> <standard_value>
22019.84

> <IC50_uM>
22.01984

> <Activity>
No

> <pIC50>
4.657185841

> <BCI>
0

$$$$

  SciTegic03012415362D

 43 49  0  0  1  0            999 V2000
    2.5919    1.5012    0.0000 O   0  0
    3.8933    0.7554    0.0000 C   0  0
    3.8990   -0.7455    0.0000 C   0  0  2  0  0  0
    5.2003   -1.4932    0.0000 C   0  0
    6.4990   -0.7409    0.0000 C   0  0
    7.8007   -1.4864    0.0000 C   0  0
    9.0971   -0.7319    0.0000 C   0  0
    9.0919    0.7681    0.0000 C   0  0
    7.7903    1.5136    0.0000 C   0  0
    6.4939    0.7591    0.0000 C   0  0
    2.6003   -1.4977    0.0000 N   0  0
    1.2990   -0.7500    0.0000 C   0  0
    1.2990    0.7500    0.0000 N   0  0
    0.0000    1.5000    0.0000 C   0  0
   -0.0031    3.0008    0.0000 O   0  0
   -1.3039    3.7494    0.0000 C   0  0
   -1.3092    5.2494    0.0000 C   0  0
   -2.6108    5.9949    0.0000 C   0  0
   -3.9073    5.2404    0.0000 C   0  0
   -3.9021    3.7404    0.0000 C   0  0
   -2.6005    2.9949    0.0000 C   0  0
   -5.3262    3.2720    0.0000 C   0  0
   -6.2121    4.4824    0.0000 C   0  0
   -5.3346    5.6990    0.0000 C   0  0
   -1.2990    0.7500    0.0000 N   0  0
   -1.2990   -0.7500    0.0000 C   0  0
    0.0000   -1.5000    0.0000 C   0  0
   -0.3114   -2.9665    0.0000 N   0  0
   -1.8032   -3.1233    0.0000 C   0  0
   -2.4133   -1.7530    0.0000 N   0  0
   -3.8794   -1.4442    0.0000 C   0  0
   -4.8823   -2.5608    0.0000 C   0  0
   -6.3506   -2.2538    0.0000 C   0  0
   -7.3506   -3.3718    0.0000 C   0  0
   -6.8824   -4.7969    0.0000 C   0  0
   -7.8829   -5.9155    0.0000 C   0  0
   -9.3517   -5.6108    0.0000 C   0  0
  -10.3500   -6.7304    0.0000 C   0  0
   -9.8795   -8.1547    0.0000 C   0  0
   -8.4108   -8.4595    0.0000 C   0  0
   -7.4125   -7.3399    0.0000 C   0  0
   -5.4142   -5.1040    0.0000 C   0  0
   -4.4141   -3.9859    0.0000 C   0  0
  1  2  1  0
  3  2  1  6
  3  4  1  0
  4  5  1  0
  5  6  2  0
  6  7  1  0
  7  8  2  0
  8  9  1  0
  9 10  2  0
 10  5  1  0
  3 11  1  0
 11 12  1  0
 12 13  2  0
 13 14  1  0
 14 15  1  0
 15 16  1  0
 16 17  2  0
 17 18  1  0
 18 19  2  0
 19 20  1  0
 20 21  2  0
 21 16  1  0
 20 22  1  0
 22 23  1  0
 23 24  1  0
 24 19  1  0
 14 25  2  0
 25 26  1  0
 26 27  2  0
 27 12  1  0
 27 28  1  0
 28 29  2  0
 29 30  1  0
 30 26  1  0
 30 31  1  0
 31 32  1  0
 32 33  2  0
 33 34  1  0
 34 35  2  0
 35 36  1  0
 36 37  2  0
 37 38  1  0
 38 39  2  0
 39 40  1  0
 40 41  2  0
 41 36  1  0
 35 42  1  0
 42 43  2  0
 43 32  1  0
M  END
> <Smiles>
OC[C@H](Cc1ccccc1)Nc1nc(Oc2ccc3c(c2)CCC3)nc2c1ncn2Cc1ccc(-c2ccccc2)cc1

> <ID>
CHEMBL259181

> <standard_value>
25884.34

> <IC50_uM>
25.88434

> <Activity>
No

> <pIC50>
4.586962904

> <BCI>
0

$$$$

  SciTegic03012415362D

 28 31  0  0  0  0            999 V2000
    7.7947   -3.0293    0.0000 C   0  0
    6.4915   -3.7721    0.0000 N   0  0
    5.1954   -3.0153    0.0000 C   0  0
    5.2033   -1.5153    0.0000 O   0  0
    3.8915   -3.7585    0.0000 C   0  0
    3.8864   -5.2585    0.0000 C   0  0
    2.5847   -6.0040    0.0000 C   0  0
    1.2883   -5.2495    0.0000 C   0  0
    1.2935   -3.7495    0.0000 C   0  0
    2.5951   -3.0039    0.0000 C   0  0
    2.5973   -1.5031    0.0000 S   0  0
    1.2990   -0.7500    0.0000 C   0  0
    1.2990    0.7500    0.0000 C   0  0
    0.0000    1.5000    0.0000 C   0  0
   -1.2990    0.7500    0.0000 C   0  0
   -2.7248    1.2135    0.0000 C   0  0
   -3.1905    2.6376    0.0000 C   0  0
   -4.6589    2.9478    0.0000 C   0  0
   -5.1253    4.3743    0.0000 C   0  0
   -6.5925    4.6864    0.0000 C   0  0
   -7.0558    6.1131    0.0000 C   0  0
   -6.0520    7.2277    0.0000 C   0  0
   -4.5848    6.9156    0.0000 C   0  0
   -4.1215    5.4889    0.0000 N   0  0
   -3.6065    0.0000    0.0000 N   0  0
   -2.7248   -1.2135    0.0000 N   0  0
   -1.2990   -0.7500    0.0000 C   0  0
    0.0000   -1.5000    0.0000 C   0  0
  1  2  1  0
  2  3  1  0
  3  4  2  0
  3  5  1  0
  5  6  2  0
  6  7  1  0
  7  8  2  0
  8  9  1  0
  9 10  2  0
 10  5  1  0
 10 11  1  0
 11 12  1  0
 12 13  2  0
 13 14  1  0
 14 15  2  0
 15 16  1  0
 16 17  1  0
 17 18  2  0
 18 19  1  0
 19 20  2  0
 20 21  1  0
 21 22  2  0
 22 23  1  0
 23 24  2  0
 24 19  1  0
 16 25  2  0
 25 26  1  0
 26 27  1  0
 27 15  1  0
 27 28  2  0
 28 12  1  0
M  END
> <Smiles>
CNC(=O)c1ccccc1Sc1ccc2c(/C=C/c3ccccn3)n[nH]c2c1

> <ID>
CHEMBL1289926

> <standard_value>
26801.75

> <IC50_uM>
26.80175

> <Activity>
No

> <pIC50>
4.571836848

> <BCI>
0

$$$$

  SciTegic03012415362D

 26 29  0  0  0  0            999 V2000
    3.8978   -2.2504    0.0000 N   0  0
    2.5988   -1.5004    0.0000 C   0  0
    1.2990   -0.7500    0.0000 C   0  0
    1.2990    0.7500    0.0000 C   0  0
    2.5981    1.5000    0.0000 O   0  0
    0.0000    1.5000    0.0000 C   0  0
   -0.3115    2.9665    0.0000 C   0  0
    0.6928    4.0817    0.0000 C   0  0
    2.1743    3.8809    0.0000 C   0  0
    3.0913    5.0679    0.0000 C   0  0
    2.5218    6.4556    0.0000 C   0  0
    3.4392    7.6433    0.0000 C   0  0
    2.8676    9.0301    0.0000 C   0  0
    3.7827   10.2186    0.0000 C   0  0
    5.2695   10.0204    0.0000 C   0  0
    5.8412    8.6336    0.0000 C   0  0
    4.9261    7.4451    0.0000 C   0  0
    5.4979    6.0583    0.0000 O   0  0
    1.0352    6.6562    0.0000 C   0  0
    0.1182    5.4691    0.0000 C   0  0
   -1.8032    3.1233    0.0000 C   0  0
   -2.4133    1.7530    0.0000 S   0  0
   -1.2990    0.7500    0.0000 C   0  0
   -1.2990   -0.7500    0.0000 N   0  0
    0.0000   -1.5000    0.0000 C   0  0
    0.0000   -3.0000    0.0000 O   0  0
  1  2  3  0
  2  3  1  0
  3  4  2  0
  4  5  1  0
  4  6  1  0
  6  7  1  0
  7  8  1  0
  8  9  2  0
  9 10  1  0
 10 11  2  0
 11 12  1  0
 12 13  2  0
 13 14  1  0
 14 15  2  0
 15 16  1  0
 16 17  2  0
 17 12  1  0
 17 18  1  0
 11 19  1  0
 19 20  2  0
 20  8  1  0
  7 21  2  0
 21 22  1  0
 22 23  1  0
 23  6  2  0
 23 24  1  0
 24 25  1  0
 25  3  1  0
 25 26  2  0
M  END
> <Smiles>
N#Cc1c(O)c2c(-c3ccc(-c4ccccc4O)cc3)csc2[nH]c1=O

> <ID>
CHEMBL512504

> <standard_value>
28604.87

> <IC50_uM>
28.60487

> <Activity>
No

> <pIC50>
4.543560022

> <BCI>
0

$$$$

  SciTegic03012415362D

 34 34  0  0  1  0            999 V2000
   10.3716  -16.5265    0.0000 C   0  0
   10.3737  -15.0265    0.0000 C   0  0
   11.6740  -14.2788    0.0000 C   0  0
    9.0755  -14.2734    0.0000 C   0  0
    9.0776  -12.7726    0.0000 C   0  0  1  0  0  0
   10.3771  -12.0218    0.0000 C   0  0
   10.3776  -10.5218    0.0000 O   0  0
    7.7794  -12.0195    0.0000 N   0  0
    7.7815  -10.5187    0.0000 C   0  0
    9.0819   -9.7710    0.0000 O   0  0
    6.4833   -9.7656    0.0000 C   0  0  2  0  0  0
    5.1807  -10.5111    0.0000 C   0  0
    3.8834   -9.7566    0.0000 C   0  0
    2.5815  -10.5016    0.0000 C   0  0
    3.8868   -8.7566    0.0000 C   0  0
    6.4855   -8.2648    0.0000 N   0  0
    5.1873   -7.5117    0.0000 C   0  0
    4.3204   -8.0102    0.0000 O   0  0
    5.1894   -6.0109    0.0000 C   0  0  2  0  0  0
    6.4889   -5.2601    0.0000 C   0  0
    6.4894   -3.7592    0.0000 C   0  0
    7.7882   -3.0088    0.0000 C   0  0
    5.6234   -3.2592    0.0000 C   0  0
    3.8912   -5.2578    0.0000 N   0  0
    3.8933   -3.7570    0.0000 C   0  0
    4.7602   -3.2585    0.0000 O   0  0
    2.5951   -3.0039    0.0000 O   0  0
    2.5973   -1.5031    0.0000 C   0  0
    1.2990   -0.7500    0.0000 C   0  0
    1.2990    0.7500    0.0000 C   0  0
    0.0000    1.5000    0.0000 C   0  0
   -1.2990    0.7500    0.0000 C   0  0
   -1.2990   -0.7500    0.0000 C   0  0
    0.0000   -1.5000    0.0000 C   0  0
  1  2  1  0
  2  3  1  0
  2  4  1  0
  5  4  1  6
  5  6  1  0
  6  7  2  0
  5  8  1  0
  8  9  1  0
  9 10  2  0
  9 11  1  0
 11 12  1  6
 12 13  1  0
 13 14  1  0
 13 15  1  0
 11 16  1  0
 16 17  1  0
 17 18  2  0
 17 19  1  0
 19 20  1  1
 20 21  1  0
 21 22  1  0
 21 23  1  0
 19 24  1  0
 24 25  1  0
 25 26  2  0
 25 27  1  0
 27 28  1  0
 28 29  1  0
 29 30  2  0
 30 31  1  0
 31 32  2  0
 32 33  1  0
 33 34  2  0
 34 29  1  0
M  END
> <Smiles>
CC(C)C[C@@H](C=O)NC(=O)[C@H](CC(C)C)NC(=O)[C@H](CC(C)C)NC(=O)OCc1ccccc1

> <ID>
CHEMBL64925

> <standard_value>
38670.46

> <IC50_uM>
38.67046

> <Activity>
No

> <pIC50>
4.412620662

> <BCI>
0

$$$$

  SciTegic03012415362D

 34 38  0  0  1  0            999 V2000
   -2.6148   -5.9788    0.0000 C   0  0
   -1.3117   -5.2360    0.0000 C   0  0
   -0.0156   -5.9927    0.0000 N   0  0
    1.2883   -5.2495    0.0000 C   0  0
    2.5847   -6.0040    0.0000 C   0  0
    3.8864   -5.2585    0.0000 C   0  0
    5.1851   -6.0107    0.0000 N   0  0
    6.4863   -5.2629    0.0000 C   0  0  1  0  0  0
    7.7855   -6.0129    0.0000 C   0  0
    9.0845   -5.2629    0.0000 C   0  0
    9.0845   -3.7629    0.0000 C   0  0  1  0  0  0
   10.3835   -3.0128    0.0000 O   0  0
    7.7854   -3.0129    0.0000 C   0  0
    6.4864   -3.7629    0.0000 C   0  0
    3.8915   -3.7585    0.0000 N   0  0
    2.5951   -3.0039    0.0000 C   0  0
    2.5973   -1.5031    0.0000 N   0  0
    1.2990   -0.7500    0.0000 C   0  0
    1.2990    0.7500    0.0000 C   0  0
    0.0000    1.5000    0.0000 C   0  0
   -1.2990    0.7500    0.0000 C   0  0
   -1.2990   -0.7500    0.0000 C   0  0
   -2.7248   -1.2135    0.0000 C   0  0
   -3.6065    0.0000    0.0000 C   0  0
   -2.7248    1.2135    0.0000 N   0  0
   -3.1905    2.6376    0.0000 C   0  0
   -4.6589    2.9478    0.0000 C   0  0
   -5.1272    4.3728    0.0000 C   0  0
   -6.5954    4.6799    0.0000 C   0  0
   -7.5954    3.5619    0.0000 C   0  0
   -7.1272    2.1368    0.0000 C   0  0
   -5.6590    1.8298    0.0000 C   0  0
    0.0000   -1.5000    0.0000 C   0  0
    1.2935   -3.7495    0.0000 N   0  0
  1  2  1  0
  2  3  1  0
  3  4  1  0
  4  5  2  0
  5  6  1  0
  6  7  1  0
  8  7  1  6
  8  9  1  0
  9 10  1  0
 10 11  1  0
 11 12  1  6
 11 13  1  0
 13 14  1  0
 14  8  1  0
  6 15  2  0
 15 16  1  0
 16 17  1  0
 17 18  1  0
 18 19  2  0
 19 20  1  0
 20 21  2  0
 21 22  1  0
 22 23  1  0
 23 24  2  0
 24 25  1  0
 25 21  1  0
 25 26  1  0
 26 27  1  0
 27 28  2  0
 28 29  1  0
 29 30  2  0
 30 31  1  0
 31 32  2  0
 32 27  1  0
 22 33  2  0
 33 18  1  0
 16 34  2  0
 34  4  1  0
M  END
> <Smiles>
CCNc1cc(N[C@H]2CC[C@@H](O)CC2)nc(Nc2ccc3c(ccn3Cc3ccccc3)c2)n1

> <ID>
CHEMBL1242367

> <standard_value>
42273.57

> <IC50_uM>
42.27357

> <Activity>
No

> <pIC50>
4.373931074

> <BCI>
0

$$$$

  SciTegic03012415362D

 31 34  0  0  0  0            999 V2000
    3.8983   -0.7459    0.0000 C   0  0
    2.6003   -1.4977    0.0000 O   0  0
    1.2990   -0.7500    0.0000 C   0  0
    1.2990    0.7500    0.0000 C   0  0
    0.0000    1.5000    0.0000 C   0  0
    0.0000    3.0000    0.0000 N   0  0
   -1.2991    3.7500    0.0000 C   0  0
   -2.5981    3.0000    0.0000 N   0  0
   -2.5981    1.5000    0.0000 C   0  0
   -3.8994    0.7522    0.0000 N   0  0
   -5.1981    1.5045    0.0000 C   0  0
   -6.4998    0.7590    0.0000 C   0  0
   -7.7962    1.5135    0.0000 C   0  0
   -7.7910    3.0135    0.0000 C   0  0
   -9.0875    3.7680    0.0000 F   0  0
   -6.4894    3.7590    0.0000 C   0  0
   -6.4842    5.2590    0.0000 Cl  0  0
   -5.1930    3.0045    0.0000 C   0  0
   -1.2990    0.7500    0.0000 C   0  0
   -1.2990   -0.7500    0.0000 C   0  0
    0.0000   -1.5000    0.0000 C   0  0
   -0.0031   -3.0008    0.0000 O   0  0
   -1.3039   -3.7494    0.0000 C   0  0
   -1.3070   -5.2502    0.0000 C   0  0
   -2.6078   -5.9988    0.0000 C   0  0
   -2.6109   -7.4996    0.0000 N   0  0
   -3.9099   -8.2497    0.0000 C   0  0
   -3.9099   -9.7497    0.0000 C   0  0
   -2.6109  -10.4997    0.0000 O   0  0
   -1.3119   -9.7497    0.0000 C   0  0
   -1.3118   -8.2497    0.0000 C   0  0
  1  2  1  0
  2  3  1  0
  3  4  2  0
  4  5  1  0
  5  6  2  0
  6  7  1  0
  7  8  2  0
  8  9  1  0
  9 10  1  0
 10 11  1  0
 11 12  2  0
 12 13  1  0
 13 14  2  0
 14 15  1  0
 14 16  1  0
 16 17  1  0
 16 18  2  0
 18 11  1  0
  9 19  2  0
 19  5  1  0
 19 20  1  0
 20 21  2  0
 21  3  1  0
 21 22  1  0
 22 23  1  0
 23 24  1  0
 24 25  1  0
 25 26  1  0
 26 27  1  0
 27 28  1  0
 28 29  1  0
 29 30  1  0
 30 31  1  0
 31 26  1  0
M  END
> <Smiles>
COc1cc2ncnc(Nc3ccc(F)c(Cl)c3)c2cc1OCCCN1CCOCC1

> <ID>
CHEMBL939

> <standard_value>
42552.94

> <IC50_uM>
42.55294

> <Activity>
No

> <pIC50>
4.371070429

> <BCI>
0

$$$$

  SciTegic03012415362D

 43 48  0  0  1  0            999 V2000
    2.4192   -8.3243    0.0000 C   0  0
    1.2028   -7.4466    0.0000 C   0  0
    1.1979   -5.9466    0.0000 N   0  0
   -0.2234   -5.5086    0.0000 C   0  0
   -0.6890   -4.0818    0.0000 C   0  0
    0.3114   -2.9665    0.0000 C   0  0
    1.8032   -3.1233    0.0000 C   0  0
    2.5532   -4.4223    0.0000 O   0  0
    2.4133   -1.7530    0.0000 N   0  0
    1.2990   -0.7500    0.0000 C   0  0
    1.2990    0.7500    0.0000 C   0  0
    0.0000    1.5000    0.0000 C   0  0
   -1.2990    0.7500    0.0000 C   0  0
   -2.5988    1.5004    0.0000 S   0  0
   -3.8976    0.7500    0.0000 O   0  0
   -3.8982    2.2498    0.0000 O   0  0
   -2.5998    3.0012    0.0000 C   0  0
   -3.8995    3.7516    0.0000 C   0  0
   -3.9027    5.2517    0.0000 C   0  0
   -2.6052    6.0043    0.0000 Cl  0  0
   -5.2032    5.9990    0.0000 C   0  0
   -6.5007    5.2464    0.0000 C   0  0
   -6.4977    3.7464    0.0000 C   0  0
   -5.1971    2.9990    0.0000 C   0  0
   -5.1941    1.4990    0.0000 Cl  0  0
   -1.2990   -0.7500    0.0000 C   0  0
    0.0000   -1.5000    0.0000 C   0  0
   -1.1079   -6.7042    0.0000 C   0  0
   -2.6079   -6.7003    0.0000 C   0  0
   -0.2222   -7.9149    0.0000 C   0  0
   -0.6776   -9.3422    0.0000 C   0  0
   -2.1432   -9.6615    0.0000 O   0  0
    0.3320  -10.4528    0.0000 N   0  0
    1.8079  -10.2697    0.0000 C   0  0
    2.4273  -11.6359    0.0000 C   0  0
    1.3194  -12.6471    0.0000 C   0  0
    0.0153  -11.9060    0.0000 C   0  0  2  0  0  0
   -1.3526  -12.5170    0.0000 C   0  0
   -1.5087  -14.0096    0.0000 N   0  0
   -2.8035  -14.7413    0.0000 C   0  0
   -2.4879  -16.2077    0.0000 C   0  0
   -0.9957  -16.3606    0.0000 C   0  0
   -0.3891  -14.9887    0.0000 C   0  0
  1  2  1  0
  2  3  1  0
  3  4  1  0
  4  5  1  0
  5  6  2  0
  6  7  1  0
  7  8  2  0
  7  9  1  0
  9 10  1  0
 10 11  2  0
 11 12  1  0
 12 13  2  0
 13 14  1  0
 14 15  2  0
 14 16  2  0
 14 17  1  0
 17 18  1  0
 18 19  2  0
 19 20  1  0
 19 21  1  0
 21 22  2  0
 22 23  1  0
 23 24  2  0
 24 18  1  0
 24 25  1  0
 13 26  1  0
 26 27  2  0
 27 10  1  0
 27  6  1  0
  4 28  2  0
 28 29  1  0
 28 30  1  0
 30  2  2  0
 30 31  1  0
 31 32  2  0
 31 33  1  0
 33 34  1  0
 34 35  1  0
 35 36  1  0
 36 37  1  0
 37 33  1  0
 37 38  1  6
 38 39  1  0
 39 40  1  0
 40 41  1  0
 41 42  1  0
 42 43  1  0
 43 39  1  0
M  END
> <Smiles>
Cc1[nH]c(/C=C2\C(=O)Nc3ccc(S(=O)(=O)Cc4c(Cl)cccc4Cl)cc32)c(C)c1C(=O)N1CCC[C@@H]1CN1CCCC1

> <ID>
CHEMBL450786

> <standard_value>
50263.74

> <IC50_uM>
50.26374

> <Activity>
No

> <pIC50>
4.2987452

> <BCI>
0

$$$$

  SciTegic03012415362D

 30 35  0  0  0  0            999 V2000
    7.7950   -1.5087    0.0000 O   0  0
    6.4971   -0.7566    0.0000 C   0  0
    6.4995    0.7434    0.0000 C   0  0
    5.2017    1.4955    0.0000 C   0  0
    5.2040    2.9962    0.0000 N   0  0
    6.5031    3.7463    0.0000 C   0  0
    6.5031    5.2463    0.0000 C   0  0
    5.2040    5.9963    0.0000 O   0  0
    3.9050    5.2463    0.0000 C   0  0
    3.9050    3.7463    0.0000 C   0  0
    3.9014    0.7475    0.0000 O   0  0
    3.8991   -0.7525    0.0000 C   0  0
    2.5987   -1.5004    0.0000 C   0  0
    1.2990   -0.7500    0.0000 C   0  0
    1.2990    0.7500    0.0000 C   0  0
    0.0000    1.5000    0.0000 C   0  0
   -1.2990    0.7500    0.0000 C   0  0
   -1.2990   -0.7500    0.0000 C   0  0
    0.0000   -1.5000    0.0000 C   0  0
   -0.3114   -2.9665    0.0000 S   0  0
   -1.8032   -3.1233    0.0000 C   0  0
   -2.6837   -4.3363    0.0000 C   0  0
   -4.1755   -4.1795    0.0000 C   0  0
   -4.7856   -2.8092    0.0000 C   0  0
   -3.9040   -1.5957    0.0000 C   0  0
   -2.4133   -1.7530    0.0000 C   0  0
    2.5965   -3.0004    0.0000 C   0  0
    3.8943   -3.7525    0.0000 C   0  0
    5.1945   -3.0045    0.0000 C   0  0
    5.1969   -1.5045    0.0000 C   0  0
  1  2  2  0
  2  3  1  0
  3  4  2  0
  4  5  1  0
  5  6  1  0
  6  7  1  0
  7  8  1  0
  8  9  1  0
  9 10  1  0
 10  5  1  0
  4 11  1  0
 11 12  1  0
 12 13  2  0
 13 14  1  0
 14 15  2  0
 15 16  1  0
 16 17  2  0
 17 18  1  0
 18 19  2  0
 19 14  1  0
 19 20  1  0
 20 21  1  0
 21 22  2  0
 22 23  1  0
 23 24  2  0
 24 25  1  0
 25 26  2  0
 26 21  1  0
 26 18  1  0
 13 27  1  0
 27 28  2  0
 28 29  1  0
 29 30  2  0
 30  2  1  0
 30 12  1  0
M  END
> <Smiles>
O=c1cc(N2CCOCC2)oc2c(-c3cccc4c3sc3ccccc34)cccc12

> <ID>
CHEMBL188678

> <standard_value>
55621.45

> <IC50_uM>
55.62145

> <Activity>
No

> <pIC50>
4.254757694

> <BCI>
0

$$$$

  SciTegic03012415362D

 34 38  0  0  1  0            999 V2000
   -0.1222   -1.1625    0.0000 C   0  0
    0.6654   -2.4391    0.0000 N   0  0
    0.1040   -3.8300    0.0000 C   0  0
    1.2534   -4.7938    0.0000 N   0  0
    2.5252   -3.9985    0.0000 C   0  0
    2.1477   -2.5600    0.0000 C   0  0
    3.1121   -1.4100    0.0000 C   0  0  1  0  0  0
    4.5893   -1.6705    0.0000 N   0  0
    2.5992    0.0005    0.0000 C   0  0
    3.8985    0.7500    0.0000 C   0  0
    3.8989    2.2500    0.0000 C   0  0
    2.6001    3.0005    0.0000 C   0  0
    2.6006    4.5005    0.0000 Cl  0  0
    1.3009    2.2509    0.0000 C   0  0
    1.3004    0.7509    0.0000 C   0  0
    1.6341   -1.1494    0.0000 C   0  0
    1.1211    0.2601    0.0000 C   0  0
   -0.3561    0.5206    0.0000 C   0  0
   -1.3203   -0.6285    0.0000 C   0  0
   -0.8073   -2.0380    0.0000 C   0  0
    0.6699   -2.2985    0.0000 C   0  0
   -1.7714   -3.1871    0.0000 C   0  0
   -1.2582   -4.5973    0.0000 C   0  0
    0.2187   -4.8603    0.0000 C   0  0
    0.7295   -6.2706    0.0000 C   0  0
   -0.2365   -7.4181    0.0000 C   0  0
   -1.7133   -7.1553    0.0000 C   0  0
   -2.6793   -8.3029    0.0000 Cl  0  0
   -2.2241   -5.7450    0.0000 C   0  0
   -3.2487   -2.9266    0.0000 C   0  0
   -3.7617   -1.5171    0.0000 C   0  0
   -5.2389   -1.2566    0.0000 O   0  0
   -2.7975   -0.3680    0.0000 N   0  0
   -3.3106    1.0415    0.0000 C   0  0
  1  2  1  0
  2  3  1  0
  3  4  2  0
  4  5  1  0
  5  6  2  0
  6  2  1  0
  6  7  1  0
  7  8  1  1
  7  9  1  0
  9 10  2  0
 10 11  1  0
 11 12  2  0
 12 13  1  0
 12 14  1  0
 14 15  2  0
 15  9  1  0
  7 16  1  0
 16 17  2  0
 17 18  1  0
 18 19  2  0
 19 20  1  0
 20 21  2  0
 21 16  1  0
 20 22  1  0
 22 23  1  0
 23 24  2  0
 24 25  1  0
 25 26  2  0
 26 27  1  0
 27 28  1  0
 27 29  2  0
 29 23  1  0
 22 30  2  0
 30 31  1  0
 31 32  2  0
 31 33  1  0
 33 19  1  0
 33 34  1  0
M  END
> <Smiles>
Cn1cncc1[C@@](N)(c1ccc(Cl)cc1)c1ccc2c(c1)c(-c1cccc(Cl)c1)cc(=O)n2C

> <ID>
CHEMBL289228

> <standard_value>
57282.38

> <IC50_uM>
57.28238

> <Activity>
No

> <pIC50>
4.241978946

> <BCI>
0

$$$$

  SciTegic03012415362D

 22 22  0  0  0  0            999 V2000
    2.5981   -1.5000    0.0000 C   0  0
    1.2990   -0.7500    0.0000 C   0  0
    1.2990    0.7500    0.0000 C   0  0
    2.6003    1.4978    0.0000 C   0  0
    3.8990    0.7455    0.0000 C   0  0
    5.2003    1.4932    0.0000 C   0  0
    5.2029    2.9932    0.0000 C   0  0
    6.4990    0.7410    0.0000 C   0  0
    7.8003    1.4887    0.0000 C   0  0
    9.0990    0.7365    0.0000 C   0  0
   10.4003    1.4842    0.0000 C   0  0
   10.4029    2.9842    0.0000 C   0  0
   11.6989    0.7320    0.0000 C   0  0
   13.0002    1.4797    0.0000 C   0  0
   14.2982    0.7279    0.0000 O   0  0
   13.0028    2.9797    0.0000 O   0  0
    0.0000    1.5000    0.0000 C   0  0
    1.3164    2.2191    0.0000 C   0  0
   -1.3163    2.2193    0.0000 C   0  0
   -1.2990    0.7500    0.0000 C   0  0
   -1.2990   -0.7500    0.0000 C   0  0
    0.0000   -1.5000    0.0000 C   0  0
  1  2  1  0
  2  3  2  0
  3  4  1  0
  4  5  2  0
  5  6  1  0
  6  7  1  0
  6  8  2  0
  8  9  1  0
  9 10  2  0
 10 11  1  0
 11 12  1  0
 11 13  2  0
 13 14  1  0
 14 15  2  0
 14 16  1  0
  3 17  1  0
 17 18  1  0
 17 19  1  0
 17 20  1  0
 20 21  1  0
 21 22  1  0
 22  2  1  0
M  END
> <Smiles>
CC1=C(/C=C/C(C)=C/C=C/C(C)=C/C(=O)O)C(C)(C)CCC1

> <ID>
CHEMBL38

> <standard_value>
67638.95

> <IC50_uM>
67.63895

> <Activity>
No

> <pIC50>
4.169803143

> <BCI>
0

$$$$

  SciTegic03012415362D

 31 35  0  0  1  0            999 V2000
    2.5228   -3.0436    0.0000 C   0  0
    1.2626   -2.2300    0.0000 C   0  0
    1.2990   -0.7500    0.0000 C   0  0  1  0  0  0
    2.5793    0.0316    0.0000 O   0  0
    1.2990    0.7500    0.0000 C   0  0
    2.5981    1.5000    0.0000 O   0  0
    0.0000    1.5000    0.0000 O   0  0
   -1.2990    0.7500    0.0000 C   0  0
   -1.2990   -0.7500    0.0000 C   0  0
    0.0000   -1.5000    0.0000 C   0  0
    0.0000   -3.0000    0.0000 C   0  0
   -1.2990   -3.7500    0.0000 C   0  0
   -2.5981   -3.0000    0.0000 N   0  0
   -2.5981   -1.5000    0.0000 C   0  0
   -3.8971   -0.7500    0.0000 O   0  0
   -3.7124   -4.0030    0.0000 C   0  0  3  0  0  0
   -5.1785   -3.6942    0.0000 O   0  0
   -6.1813   -4.8108    0.0000 C   0  0
   -7.6499   -4.5015    0.0000 C   0  0
   -8.6522   -5.6175    0.0000 F   0  0
   -3.1022   -5.3733    0.0000 C   0  0
   -3.7125   -6.7424    0.0000 C   0  0
   -2.8308   -7.9559    0.0000 C   0  0
   -3.4409   -9.3262    0.0000 C   0  0
   -2.5592  -10.5397    0.0000 C   0  0
   -3.1693  -11.9101    0.0000 O   0  0
   -1.0674  -10.3829    0.0000 C   0  0
   -0.4573   -9.0126    0.0000 C   0  0
   -1.3390   -7.7991    0.0000 C   0  0
   -0.7289   -6.4288    0.0000 N   0  0
   -1.6105   -5.2165    0.0000 C   0  0
  1  2  1  0
  2  3  1  0
  3  4  1  1
  3  5  1  0
  5  6  2  0
  5  7  1  0
  7  8  1  0
  8  9  1  0
  9 10  2  0
 10  3  1  0
 10 11  1  0
 11 12  2  0
 12 13  1  0
 13 14  1  0
 14  9  1  0
 14 15  2  0
 13 16  1  0
 16 17  1  4
 17 18  1  0
 18 19  1  0
 19 20  1  0
 16 21  1  0
 21 22  2  0
 22 23  1  0
 23 24  2  0
 24 25  1  0
 25 26  1  0
 25 27  2  0
 27 28  1  0
 28 29  2  0
 29 23  1  0
 29 30  1  0
 30 31  2  0
 31 21  1  0
 31 12  1  0
M  END
> <Smiles>
CC[C@@]1(O)C(=O)OCc2c1cc1n(c2=O)C(OCCF)c2cc3cc(O)ccc3nc2-1

> <ID>
CHEMBL123230

> <standard_value>
20000

> <IC50_uM>
20

> <Activity>
No

> <pIC50>
4.698970004

> <BCI>
0

$$$$

  SciTegic03012415362D

 30 32  0  0  1  0            999 V2000
    2.5981   -1.5000    0.0000 C   0  0
    1.2990   -0.7500    0.0000 C   0  0
    1.2990    0.7500    0.0000 C   0  0
    0.0000    1.5000    0.0000 C   0  0
   -1.2990    0.7500    0.0000 C   0  0
   -1.2990   -0.7500    0.0000 C   0  0  1  0  0  0
   -2.5981   -1.5000    0.0000 C   0  0  2  0  0  0
   -3.8783   -2.2816    0.0000 C   0  0
   -2.5616   -0.0200    0.0000 C   0  0
   -3.8225    0.7940    0.0000 C   0  0
   -3.7764    2.2921    0.0000 C   0  0
   -2.4550    3.0019    0.0000 O   0  0
   -5.0519    3.0815    0.0000 C   0  0
   -5.0059    4.5808    0.0000 O   0  0
   -6.3733    2.3717    0.0000 C   0  0
   -6.4192    0.8724    0.0000 C   0  0
   -7.7428    0.1649    0.0000 N   0  0
   -9.0178    0.9565    0.0000 C   0  0
  -10.3414    0.2490    0.0000 C   0  0
  -11.6165    1.0407    0.0000 C   0  0
  -12.9393    0.3336    0.0000 O   0  0
  -11.5679    2.5399    0.0000 O   0  0
   -5.1438    0.0830    0.0000 C   0  0
   -5.1891   -1.4164    0.0000 O   0  0
   -2.5981   -3.0000    0.0000 C   0  0  1  0  0  0
   -3.8971   -3.7500    0.0000 C   0  0
   -1.2990   -3.7500    0.0000 C   0  0
    0.0000   -3.0000    0.0000 C   0  0
    0.0000   -1.5000    0.0000 C   0  0  2  0  0  0
    1.2990   -2.2500    0.0000 C   0  0
  1  2  2  0
  2  3  1  0
  3  4  1  0
  4  5  1  0
  6  5  1  6
  6  7  1  0
  7  8  1  6
  7  9  1  0
  9 10  1  0
 10 11  2  0
 11 12  1  0
 11 13  1  0
 13 14  2  0
 13 15  1  0
 15 16  2  0
 16 17  1  0
 17 18  1  0
 18 19  1  0
 19 20  1  0
 20 21  2  0
 20 22  1  0
 16 23  1  0
 23 10  1  0
 23 24  2  0
  7 25  1  0
 25 26  1  6
 25 27  1  0
 27 28  1  0
 28 29  1  0
 29  2  1  0
 29  6  1  0
 29 30  1  6
M  END
> <Smiles>
C=C1CCC[C@H]2[C@](C)(CC3=C(O)C(=O)C=C(NCCC(=O)O)C3=O)[C@@H](C)CC[C@]12C

> <ID>
CHEMBL1668120

> <standard_value>
20000

> <IC50_uM>
20

> <Activity>
No

> <pIC50>
4.698970004

> <BCI>
0

$$$$

  SciTegic03012415362D

 21 24  0  0  0  0            999 V2000
    1.7978   -5.7203    0.0000 C   0  0
    2.5497   -4.4224    0.0000 C   0  0
    1.8032   -3.1233    0.0000 C   0  0
    2.4133   -1.7530    0.0000 N   0  0
    1.2990   -0.7500    0.0000 C   0  0
    1.2990    0.7500    0.0000 C   0  0
    0.0000    1.5000    0.0000 C   0  0
   -1.2990    0.7500    0.0000 C   0  0
   -1.2990   -0.7500    0.0000 C   0  0
    0.0000   -1.5000    0.0000 C   0  0
    0.3114   -2.9665    0.0000 N   0  0
   -2.5981   -1.5000    0.0000 C   0  0
   -2.5981   -3.0000    0.0000 O   0  0
   -3.8971   -0.7500    0.0000 C   0  0
   -5.1962   -1.5000    0.0000 C   0  0
   -6.4952   -0.7500    0.0000 C   0  0
   -6.4952    0.7500    0.0000 C   0  0
   -5.1962    1.5000    0.0000 C   0  0
   -3.8971    0.7500    0.0000 C   0  0
   -2.5981    1.5000    0.0000 C   0  0
   -2.5981    3.0000    0.0000 O   0  0
  1  2  1  0
  2  3  1  0
  3  4  2  0
  4  5  1  0
  5  6  2  0
  6  7  1  0
  7  8  2  0
  8  9  1  0
  9 10  2  0
 10  5  1  0
 10 11  1  0
 11  3  1  0
  9 12  1  0
 12 13  2  0
 12 14  1  0
 14 15  2  0
 15 16  1  0
 16 17  2  0
 17 18  1  0
 18 19  2  0
 19 14  1  0
 19 20  1  0
 20  8  1  0
 20 21  2  0
M  END
> <Smiles>
CCc1nc2ccc3c(c2[nH]1)C(=O)c1ccccc1C3=O

> <ID>
CHEMBL595834

> <standard_value>
20300

> <IC50_uM>
20.3

> <Activity>
No

> <pIC50>
4.692503962

> <BCI>
0

$$$$

  SciTegic03012415362D

 25 28  0  0  0  0            999 V2000
    2.5981   -1.5000    0.0000 C   0  0
    1.2990   -0.7500    0.0000 C   0  0
    1.2990    0.7500    0.0000 N   0  0
    0.0000    1.5000    0.0000 C   0  0
    0.0000    3.0000    0.0000 C   0  0
   -1.2991    3.7500    0.0000 C   0  0
   -2.5981    3.0000    0.0000 C   0  0
   -2.5981    1.5000    0.0000 C   0  0
   -1.2990    0.7500    0.0000 C   0  0
   -1.2990   -0.7500    0.0000 C   0  0
   -2.5981   -1.5000    0.0000 O   0  0
    0.0000   -1.5000    0.0000 N   0  0
    0.0031   -3.0008    0.0000 N   0  0
    1.3039   -3.7494    0.0000 C   0  0
    2.6016   -2.9971    0.0000 O   0  0
    1.3070   -5.2502    0.0000 C   0  0  3  0  0  0
    0.0935   -6.1101    0.0000 N   0  0
    0.5570   -7.5358    0.0000 C   0  0
   -0.1930   -8.8348    0.0000 C   0  0
    0.5570  -10.1339    0.0000 C   0  0
    2.0570  -10.1338    0.0000 C   0  0
    2.8070   -8.8348    0.0000 C   0  0
    2.0570   -7.5358    0.0000 C   0  0
    2.5205   -6.1100    0.0000 C   0  0
    3.9444   -5.6381    0.0000 O   0  0
  1  2  1  0
  2  3  2  0
  3  4  1  0
  4  5  2  0
  5  6  1  0
  6  7  2  0
  7  8  1  0
  8  9  2  0
  9  4  1  0
  9 10  1  0
 10 11  2  0
 10 12  1  0
 12  2  1  0
 12 13  1  0
 13 14  1  0
 14 15  2  0
 16 14  1  4
 16 17  1  0
 17 18  1  0
 18 19  2  0
 19 20  1  0
 20 21  2  0
 21 22  1  0
 22 23  2  0
 23 18  1  0
 23 24  1  0
 24 16  1  0
 24 25  2  0
M  END
> <Smiles>
Cc1nc2ccccc2c(=O)n1NC(=O)C1Nc2ccccc2C1=O

> <ID>
CHEMBL2297609

> <standard_value>
20300

> <IC50_uM>
20.3

> <Activity>
No

> <pIC50>
4.692503962

> <BCI>
0

$$$$

  SciTegic03012415362D

 39 42  0  0  0  0            999 V2000
   12.9651  -19.5339    0.0000 C   0  0
   11.6676  -18.7813    0.0000 C   0  0
   10.3673  -19.5290    0.0000 C   0  0
   11.6648  -20.2813    0.0000 C   0  0
   11.6698  -17.2804    0.0000 O   0  0
   10.3716  -16.5273    0.0000 C   0  0
    9.0712  -17.2751    0.0000 O   0  0
   10.3737  -15.0265    0.0000 N   0  0
    9.0755  -14.2734    0.0000 C   0  0
    9.0776  -12.7726    0.0000 C   0  0
    7.7794  -12.0195    0.0000 C   0  0
    7.7815  -10.5187    0.0000 C   0  0
    6.4833   -9.7656    0.0000 C   0  0
    6.4855   -8.2648    0.0000 C   0  0
    5.1873   -7.5117    0.0000 C   0  0
    5.1894   -6.0109    0.0000 C   0  0
    3.8912   -5.2578    0.0000 C   0  0
    3.8933   -3.7570    0.0000 C   0  0
    2.5951   -3.0039    0.0000 C   0  0
    2.5973   -1.5031    0.0000 C   0  0
    1.2990   -0.7500    0.0000 N   0  0
    1.2990    0.7500    0.0000 C   0  0
    0.0000    1.5000    0.0000 C   0  0
   -1.2990    0.7500    0.0000 C   0  0
   -2.5981    1.5000    0.0000 C   0  0
   -3.8971    0.7500    0.0000 C   0  0
   -3.8971   -0.7500    0.0000 C   0  0
   -2.5981   -1.5000    0.0000 C   0  0
   -1.2990   -0.7500    0.0000 C   0  0
    0.0000   -1.5000    0.0000 C   0  0
    0.0000   -3.0000    0.0000 O   0  0
    0.3114    2.9665    0.0000 C   0  0
   -0.6924    4.0811    0.0000 O   0  0
    1.8032    3.1233    0.0000 C   0  0
    2.6837    4.3363    0.0000 C   0  0
    4.1755    4.1795    0.0000 C   0  0
    4.7856    2.8092    0.0000 C   0  0
    3.9040    1.5957    0.0000 C   0  0
    2.4133    1.7530    0.0000 C   0  0
  1  2  1  0
  2  3  1  0
  2  4  1  0
  2  5  1  0
  5  6  1  0
  6  7  2  0
  6  8  1  0
  8  9  1  0
  9 10  1  0
 10 11  1  0
 11 12  1  0
 12 13  1  0
 13 14  1  0
 14 15  1  0
 15 16  1  0
 16 17  1  0
 17 18  1  0
 18 19  1  0
 19 20  1  0
 20 21  1  0
 21 22  1  0
 22 23  2  0
 23 24  1  0
 24 25  2  0
 25 26  1  0
 26 27  2  0
 27 28  1  0
 28 29  2  0
 29 24  1  0
 29 30  1  0
 30 21  1  0
 30 31  2  0
 23 32  1  0
 32 33  2  0
 32 34  1  0
 34 35  2  0
 35 36  1  0
 36 37  2  0
 37 38  1  0
 38 39  2  0
 39 34  1  0
 39 22  1  0
M  END
> <Smiles>
CC(C)(C)OC(=O)NCCCCCCCCCCCCn1c2c(c3ccccc3c1=O)C(=O)c1ccccc1-2

> <ID>
CHEMBL225403

> <standard_value>
20400

> <IC50_uM>
20.4

> <Activity>
No

> <pIC50>
4.690369833

> <BCI>
0

$$$$

  SciTegic03012415362D

 32 35  0  0  0  0            999 V2000
    4.2566    0.5871    0.0000 C   0  0
    3.9511   -0.8815    0.0000 N   0  0
    4.9531   -1.9978    0.0000 C   0  0
    4.2010   -3.2956    0.0000 C   0  0
    2.7343   -2.9815    0.0000 C   0  0
    2.5987   -1.5004    0.0000 C   0  0
    1.2990   -0.7500    0.0000 C   0  0
    1.2990    0.7500    0.0000 C   0  0
    0.0000    1.5000    0.0000 C   0  0
    0.0000    3.0008    0.0000 C   0  0
    1.2978    3.7529    0.0000 C   0  0
    1.2954    5.2529    0.0000 C   0  0
   -0.0048    6.0009    0.0000 C   0  0
   -0.0072    7.5009    0.0000 Br  0  0
   -1.3026    5.2488    0.0000 C   0  0
   -1.3002    3.7488    0.0000 C   0  0
   -1.2990    0.7500    0.0000 N   0  0
   -2.6003    1.4977    0.0000 C   0  0
   -2.6030    2.9977    0.0000 S   0  0
   -3.8990    0.7455    0.0000 N   0  0
   -5.2003    1.4932    0.0000 C   0  0
   -6.4994    0.7432    0.0000 C   0  0
   -7.7985    1.4932    0.0000 C   0  0
   -7.7985    2.9932    0.0000 C   0  0
   -9.0976    3.7432    0.0000 F   0  0
   -6.4995    3.7432    0.0000 C   0  0
   -5.2004    2.9933    0.0000 C   0  0
   -1.2990   -0.7500    0.0000 C   0  0
   -2.5981   -1.5000    0.0000 O   0  0
    0.0000   -1.5000    0.0000 C   0  0
    0.0000   -3.0008    0.0000 C   0  0
    0.0000   -4.5008    0.0000 N   0  0
  1  2  1  0
  2  3  1  0
  3  4  2  0
  4  5  1  0
  5  6  2  0
  6  2  1  0
  6  7  1  0
  7  8  1  0
  8  9  2  0
  9 10  1  0
 10 11  2  0
 11 12  1  0
 12 13  2  0
 13 14  1  0
 13 15  1  0
 15 16  2  0
 16 10  1  0
  9 17  1  0
 17 18  1  0
 18 19  2  0
 18 20  1  0
 20 21  1  0
 21 22  2  0
 22 23  1  0
 23 24  2  0
 24 25  1  0
 24 26  1  0
 26 27  2  0
 27 21  1  0
 17 28  1  0
 28 29  2  0
 28 30  1  0
 30  7  2  0
 30 31  1  0
 31 32  3  0
M  END
> <Smiles>
Cn1cccc1-c1cc(-c2ccc(Br)cc2)n(C(=S)Nc2ccc(F)cc2)c(=O)c1C#N

> <ID>
CHEMBL2235184

> <standard_value>
20400

> <IC50_uM>
20.4

> <Activity>
No

> <pIC50>
4.690369833

> <BCI>
0

$$$$

  SciTegic03012415362D

 27 29  0  0  0  0            999 V2000
    3.8964    0.7545    0.0000 O   0  0
    3.8990   -0.7455    0.0000 C   0  0
    2.6003   -1.4977    0.0000 O   0  0
    1.2990   -0.7500    0.0000 C   0  0
    1.2990    0.7500    0.0000 C   0  0
    0.0000    1.5000    0.0000 C   0  0
   -1.2990    0.7500    0.0000 C   0  0
   -1.2990   -0.7500    0.0000 C   0  0
    0.0000   -1.5000    0.0000 C   0  0
    0.0000   -3.0000    0.0000 Cl  0  0
    5.2003   -1.4932    0.0000 C   0  0
    5.2004   -2.9933    0.0000 C   0  0
    6.4995   -3.7432    0.0000 C   0  0
    7.7985   -2.9932    0.0000 C   0  0
    7.7985   -1.4932    0.0000 C   0  0
    6.4994   -0.7432    0.0000 C   0  0
    6.5025    0.7576    0.0000 N   0  0
    7.8033    1.5061    0.0000 C   0  0
    7.8086    3.0062    0.0000 C   0  0
    9.1102    3.7517    0.0000 C   0  0
   10.4067    2.9972    0.0000 C   0  0
   10.4015    1.4972    0.0000 C   0  0
   11.6986    0.7423    0.0000 C   0  0
   13.0007    1.4869    0.0000 F   0  0
   11.6930   -0.7577    0.0000 F   0  0
   12.9947   -0.0129    0.0000 F   0  0
    9.0999    0.7517    0.0000 C   0  0
  1  2  2  0
  2  3  1  0
  3  4  1  0
  4  5  2  0
  5  6  1  0
  6  7  2  0
  7  8  1  0
  8  9  2  0
  9  4  1  0
  9 10  1  0
  2 11  1  0
 11 12  2  0
 12 13  1  0
 13 14  2  0
 14 15  1  0
 15 16  2  0
 16 11  1  0
 16 17  1  0
 17 18  1  0
 18 19  2  0
 19 20  1  0
 20 21  2  0
 21 22  1  0
 22 23  1  0
 23 24  1  0
 23 25  1  0
 23 26  1  0
 22 27  2  0
 27 18  1  0
M  END
> <Smiles>
O=C(Oc1ccccc1Cl)c1ccccc1Nc1cccc(C(F)(F)F)c1

> <ID>
CHEMBL112344

> <standard_value>
20417.38

> <IC50_uM>
20.41738

> <Activity>
No

> <pIC50>
4.689999988

> <BCI>
0

$$$$

  SciTegic03012415362D

 16 17  0  0  0  0            999 V2000
    5.5479   -1.6669    0.0000 N   0  0
    5.2447   -3.1359    0.0000 C   0  0
    6.2484   -4.2507    0.0000 N   0  0
    5.4984   -5.5497    0.0000 N   0  0
    4.0312   -5.2378    0.0000 C   0  0
    2.9105   -6.2349    0.0000 N   0  0
    3.8933   -3.7570    0.0000 C   0  0
    2.5951   -3.0039    0.0000 N   0  0
    2.5973   -1.5031    0.0000 N   0  0
    1.2990   -0.7500    0.0000 C   0  0
    1.2990    0.7500    0.0000 C   0  0
    0.0000    1.5000    0.0000 C   0  0
   -1.2990    0.7500    0.0000 C   0  0
   -2.5981    1.5000    0.0000 O   0  0
   -1.2990   -0.7500    0.0000 C   0  0
    0.0000   -1.5000    0.0000 C   0  0
  1  2  1  0
  2  3  2  0
  3  4  1  0
  4  5  1  0
  5  6  1  0
  5  7  2  0
  7  2  1  0
  7  8  1  0
  8  9  2  0
  9 10  1  0
 10 11  2  0
 11 12  1  0
 12 13  2  0
 13 14  1  0
 13 15  1  0
 15 16  2  0
 16 10  1  0
M  END
> <Smiles>
Nc1n[nH]c(N)c1/N=N/c1ccc(O)cc1

> <ID>
CHEMBL215205

> <standard_value>
20600

> <IC50_uM>
20.6

> <Activity>
No

> <pIC50>
4.68613278

> <BCI>
0

$$$$

  SciTegic03012415362D

 38 41  0  0  1  0            999 V2000
   -1.8094    1.8389    0.0000 C   0  0
   -3.0900    2.6200    0.0000 C   0  0
   -3.1246    4.1196    0.0000 C   0  0
   -4.3000    3.3200    0.0000 C   0  0
   -5.4800    2.6200    0.0000 C   0  0
   -5.4800    1.2400    0.0000 C   0  0  2  0  0  0
   -6.9900    0.4000    0.0000 C   0  0
   -6.9900   -0.9700    0.0000 C   0  0
   -8.3222   -1.6594    0.0000 O   0  0
   -5.9300   -1.7200    0.0000 O   0  0
   -5.9300   -3.1200    0.0000 C   0  0  1  0  0  0
   -7.2813   -3.7772    0.0000 C   0  0
   -8.5241   -2.9374    0.0000 O   0  0
   -4.7200   -3.9900    0.0000 C   0  0
   -3.3200   -3.3500    0.0000 C   0  0
   -2.0580   -4.1607    0.0000 O   0  0
   -3.3200   -1.9500    0.0000 O   0  0
   -1.9100   -1.1000    0.0000 C   0  0  2  0  0  0
    0.2300   -1.1000    0.0000 C   0  0
    0.9600    0.0000    0.0000 C   0  0  1  0  0  0
    2.4595   -0.0107    0.0000 C   0  0
    3.2005   -1.3158    0.0000 C   0  0
    4.7013   -1.3276    0.0000 C   0  0
    5.4423   -2.6327    0.0000 C   0  0
    6.9431   -2.6445    0.0000 C   0  0
    7.6856   -3.9479    0.0000 C   0  0
    6.9281   -5.2425    0.0000 Br  0  0
    9.1856   -3.9566    0.0000 C   0  0
    9.9431   -2.6619    0.0000 C   0  0
   11.4431   -2.6706    0.0000 Br  0  0
    9.2007   -1.3586    0.0000 C   0  0
    9.9583   -0.0639    0.0000 O   0  0
    7.7007   -1.3498    0.0000 C   0  0
    6.9583   -0.0464    0.0000 Br  0  0
    0.0600    1.2200    0.0000 O   0  0
   -3.0900    1.2400    0.0000 C   0  0  2  0  0  0
   -1.9100    0.3400    0.0000 C   0  0
   -4.3000    0.5300    0.0000 O   0  0
  1  2  1  0
  2  3  1  0
  2  4  1  0
  4  5  1  0
  6  5  1  1
  6  7  1  0
  7  8  1  0
  8  9  2  0
  8 10  1  0
 10 11  1  0
 11 12  1  6
 12 13  1  0
 11 14  1  0
 14 15  1  0
 15 16  2  0
 15 17  1  0
 18 17  1  1
 18 19  1  0
 19 20  1  0
 20 21  1  6
 21 22  1  0
 22 23  1  0
 23 24  1  0
 24 25  1  0
 25 26  2  0
 26 27  1  0
 26 28  1  0
 28 29  2  0
 29 30  1  0
 29 31  1  0
 31 32  1  0
 31 33  2  0
 33 25  1  0
 33 34  1  0
 20 35  1  0
 36 35  1  1
 36  2  1  0
 36 37  1  0
 37 18  1  0
 36 38  1  0
 38  6  1  0
M  END
> <Smiles>
CC1(C)CC[C@@H]2CC(=O)O[C@@H](CO)CC(=O)O[C@@H]3C[C@@H](CCCCc4c(Br)cc(Br)c(O)c4Br)O[C@@]1(C3)O2

> <ID>
CHEMBL2381164

> <standard_value>
20892.96

> <IC50_uM>
20.89296

> <Activity>
No

> <pIC50>
4.680000027

> <BCI>
0

$$$$

  SciTegic03012415362D

 34 37  0  0  0  0            999 V2000
    9.0755  -14.2726    0.0000 C   0  0
    9.0776  -12.7726    0.0000 C   0  0
   10.3780  -12.0249    0.0000 C   0  0
   10.3755  -13.5247    0.0000 C   0  0
    7.7794  -12.0195    0.0000 O   0  0
    7.7815  -10.5187    0.0000 C   0  0
    9.0819   -9.7710    0.0000 O   0  0
    6.4833   -9.7656    0.0000 N   0  0
    6.4855   -8.2648    0.0000 C   0  0
    5.1873   -7.5117    0.0000 C   0  0
    5.1894   -6.0109    0.0000 C   0  0
    3.8912   -5.2578    0.0000 C   0  0
    3.8933   -3.7570    0.0000 C   0  0
    2.5951   -3.0039    0.0000 C   0  0
    2.5973   -1.5031    0.0000 C   0  0
    1.2990   -0.7500    0.0000 N   0  0
    1.2990    0.7500    0.0000 C   0  0
    0.0000    1.5000    0.0000 C   0  0
   -1.2990    0.7500    0.0000 C   0  0
   -2.5981    1.5000    0.0000 C   0  0
   -3.8971    0.7500    0.0000 C   0  0
   -3.8971   -0.7500    0.0000 C   0  0
   -2.5981   -1.5000    0.0000 C   0  0
   -1.2990   -0.7500    0.0000 C   0  0
    0.0000   -1.5000    0.0000 C   0  0
    0.0000   -3.0000    0.0000 O   0  0
    0.3114    2.9665    0.0000 C   0  0
   -0.6924    4.0811    0.0000 O   0  0
    1.8032    3.1233    0.0000 C   0  0
    2.6837    4.3363    0.0000 C   0  0
    4.1755    4.1795    0.0000 C   0  0
    4.7856    2.8092    0.0000 C   0  0
    3.9040    1.5957    0.0000 C   0  0
    2.4133    1.7530    0.0000 C   0  0
  1  2  1  0
  2  3  1  0
  2  4  1  0
  2  5  1  0
  5  6  1  0
  6  7  2  0
  6  8  1  0
  8  9  1  0
  9 10  1  0
 10 11  1  0
 11 12  1  0
 12 13  1  0
 13 14  1  0
 14 15  1  0
 15 16  1  0
 16 17  1  0
 17 18  2  0
 18 19  1  0
 19 20  2  0
 20 21  1  0
 21 22  2  0
 22 23  1  0
 23 24  2  0
 24 19  1  0
 24 25  1  0
 25 16  1  0
 25 26  2  0
 18 27  1  0
 27 28  2  0
 27 29  1  0
 29 30  2  0
 30 31  1  0
 31 32  2  0
 32 33  1  0
 33 34  2  0
 34 29  1  0
 34 17  1  0
M  END
> <Smiles>
CC(C)(C)OC(=O)NCCCCCCCn1c2c(c3ccccc3c1=O)C(=O)c1ccccc1-2

> <ID>
CHEMBL224967

> <standard_value>
20900

> <IC50_uM>
20.9

> <Activity>
No

> <pIC50>
4.679853714

> <BCI>
0

$$$$

  SciTegic03012415362D

 18 21  0  0  0  0            999 V2000
   -2.8574   -0.6270    0.0000 N   0  0
   -1.3945   -0.2956    0.0000 C   0  0  3  0  0  0
    0.1617    0.6018    0.0000 C   0  0  3  0  0  0
    1.1611   -0.4060    0.0000 C   0  0
    2.5666   -0.5663    0.0000 C   0  0  3  0  0  0
    3.0920    0.8235    0.0000 C   0  0
    1.9938    1.8282    0.0000 C   0  0  3  0  0  0
    0.6134    1.8427    0.0000 C   0  0
    0.6319    1.0357    0.0000 C   0  0
    0.1050   -0.4120    0.0000 C   0  0  3  0  0  0
    1.3811   -1.2058    0.0000 C   0  0
    1.3381   -2.7060    0.0000 C   0  0
    2.8057   -3.0154    0.0000 C   0  0
    3.2716   -4.4412    0.0000 C   0  0
    2.2697   -5.5576    0.0000 C   0  0
    0.8020   -5.2482    0.0000 C   0  0
    0.3361   -3.8224    0.0000 C   0  0
    1.2094   -1.3995    0.0000 C   0  0
  2  1  1  4
  2  3  1  0
  3  4  1  4
  5  4  1  4
  5  6  1  0
  7  6  1  4
  7  8  1  0
  8  3  1  0
  7  9  1  0
  9 10  1  0
 10  2  1  0
 10 11  1  4
 11 12  1  0
 12 13  2  0
 13 14  1  0
 14 15  2  0
 15 16  1  0
 16 17  2  0
 17 12  1  0
 10 18  1  0
 18  5  1  0
M  END
> <Smiles>
Cl.NC1C2CC3CC(C2)CC1(Cc1ccccc1)C3

> <ID>
CHEMBL2430838

> <standard_value>
20980

> <IC50_uM>
20.98

> <Activity>
No

> <pIC50>
4.678194516

> <BCI>
0

> <RemovedSalts>
HCl

$$$$

  SciTegic03012415362D

 20 23  0  0  0  0            999 V2000
   -6.6756   -4.7800    0.0000 C   0  0
   -6.9281   -3.3014    0.0000 O   0  0
   -5.7738   -2.3422    0.0000 C   0  0
   -6.0243   -0.8632    0.0000 C   0  0
   -4.8687    0.0931    0.0000 C   0  0
   -3.4628   -0.4294    0.0000 C   0  0
   -2.3021    0.5221    0.0000 C   0  0
   -0.8987    0.0000    0.0000 C   0  0  3  0  0  0
   -2.0541   -1.3755    0.0000 C   0  0
   -0.6052   -0.9721    0.0000 C   0  0  3  0  0  0
   -0.6052    0.5686    0.0000 C   0  0
    0.4035    1.7790    0.0000 C   0  0  3  0  0  0
    1.7790    1.2105    0.0000 C   0  0
    1.7607   -0.2751    0.0000 C   0  0  3  0  0  0
    0.7703   -1.5223    0.0000 C   0  0
    0.3852   -0.6052    0.0000 C   0  0  3  0  0  0
    0.2317   -2.0974    0.0000 N   0  0
   -0.8987    1.3205    0.0000 C   0  0
   -3.2122   -1.9084    0.0000 C   0  0
   -4.3678   -2.8648    0.0000 C   0  0
  1  2  1  0
  2  3  1  0
  3  4  2  0
  4  5  1  0
  5  6  2  0
  6  7  1  0
  8  7  1  4
  8  9  1  0
 10  9  1  4
 10 11  1  0
 12 11  1  4
 12 13  1  0
 14 13  1  4
 14 15  1  0
 15 10  1  0
 14 16  1  0
 16  8  1  0
 16 17  1  4
 12 18  1  0
 18  8  1  0
  6 19  1  0
 19 20  2  0
 20  3  1  0
M  END
> <Smiles>
COc1ccc(CC23CC4CC(CC(C4)C2N)C3)cc1.Cl

> <ID>
CHEMBL2430840

> <standard_value>
21170

> <IC50_uM>
21.17

> <Activity>
No

> <pIC50>
4.674279142

> <BCI>
0

> <RemovedSalts>
HCl

$$$$

  SciTegic03012415362D

 20 21  0  0  0  0            999 V2000
    5.3443  -10.3154    0.0000 N   0  0
    4.4693   -9.0970    0.0000 C   0  0
    3.5939   -7.8779    0.0000 C   0  0
    2.1005   -8.0270    0.0000 C   0  0
    0.6079   -8.1760    0.0000 N   0  0
    4.2111   -6.5099    0.0000 C   0  0
    3.3372   -5.2929    0.0000 N   0  0
    1.8372   -5.2877    0.0000 C   0  0
    1.3786   -3.8595    0.0000 C   0  0
    2.5951   -3.0039    0.0000 N   0  0
    2.5973   -1.5031    0.0000 C   0  0
    3.8976   -0.7553    0.0000 O   0  0
    1.2990   -0.7500    0.0000 C   0  0
    1.2990    0.7500    0.0000 C   0  0
    0.0000    1.5000    0.0000 C   0  0
   -1.2990    0.7500    0.0000 C   0  0
   -1.2990   -0.7500    0.0000 C   0  0
    0.0000   -1.5000    0.0000 C   0  0
    3.8056   -3.8679    0.0000 C   0  0
    5.2311   -3.4009    0.0000 S   0  0
  1  2  3  0
  2  3  1  0
  3  4  1  0
  4  5  3  0
  3  6  2  0
  6  7  1  0
  7  8  1  0
  8  9  1  0
  9 10  1  0
 10 11  1  0
 11 12  2  0
 11 13  1  0
 13 14  2  0
 14 15  1  0
 15 16  2  0
 16 17  1  0
 17 18  2  0
 18 13  1  0
 10 19  1  0
 19  7  1  0
 19 20  2  0
M  END
> <Smiles>
N#CC(C#N)=CN1CCN(C(=O)c2ccccc2)C1=S

> <ID>
CHEMBL511496

> <standard_value>
21300

> <IC50_uM>
21.3

> <Activity>
No

> <pIC50>
4.671620397

> <BCI>
0

$$$$

  SciTegic03012415362D

 30 34  0  0  0  0            999 V2000
   10.6429   -8.6273    0.0000 C   0  0
    9.3098   -9.3148    0.0000 O   0  0
    8.0466   -8.5043    0.0000 C   0  0
    8.1199   -7.0061    0.0000 C   0  0
    6.8591   -6.1935    0.0000 C   0  0
    5.5298   -6.8776    0.0000 C   0  0
    4.2107   -6.1619    0.0000 C   0  0  3  0  0  0
    4.0146   -4.6747    0.0000 C   0  0
    2.5536   -4.4230    0.0000 C   0  0
    1.8032   -3.1233    0.0000 C   0  0
    2.4133   -1.7530    0.0000 N   0  0
    1.2990   -0.7500    0.0000 C   0  0
    1.2990    0.7500    0.0000 C   0  0
    0.0000    1.5000    0.0000 C   0  0
   -1.2990    0.7500    0.0000 C   0  0
   -1.2990   -0.7500    0.0000 C   0  0
    0.0000   -1.5000    0.0000 C   0  0
    0.3114   -2.9665    0.0000 N   0  0
    1.8242   -5.7201    0.0000 N   0  0
    2.8570   -6.8080    0.0000 N   0  0
    2.5838   -8.2836    0.0000 C   0  0
    1.2159   -8.8868    0.0000 C   0  0
    1.0546  -10.3781    0.0000 C   0  0
    2.2655  -11.2634    0.0000 C   0  0
    3.6377  -10.6574    0.0000 C   0  0
    3.7989   -9.1661    0.0000 C   0  0
    5.4516   -8.3773    0.0000 C   0  0
    6.7124   -9.1899    0.0000 C   0  0
    6.6360  -10.6888    0.0000 O   0  0
    5.3009  -11.3725    0.0000 C   0  0
  1  2  1  0
  2  3  1  0
  3  4  2  0
  4  5  1  0
  5  6  2  0
  7  6  1  4
  7  8  1  0
  8  9  1  0
  9 10  1  0
 10 11  2  0
 11 12  1  0
 12 13  2  0
 13 14  1  0
 14 15  2  0
 15 16  1  0
 16 17  2  0
 17 12  1  0
 17 18  1  0
 18 10  1  0
  9 19  2  0
 19 20  1  0
 20  7  1  0
 20 21  1  0
 21 22  2  0
 22 23  1  0
 23 24  2  0
 24 25  1  0
 25 26  2  0
 26 21  1  0
  6 27  1  0
 27 28  2  0
 28  3  1  0
 28 29  1  0
 29 30  1  0
M  END
> <Smiles>
COc1ccc(C2CC(c3nc4ccccc4[nH]3)=NN2c2ccccc2)cc1OC

> <ID>
CHEMBL572152

> <standard_value>
21300

> <IC50_uM>
21.3

> <Activity>
No

> <pIC50>
4.671620397

> <BCI>
0

$$$$

  SciTegic03012415362D

 18 21  0  0  0  0            999 V2000
    2.5981   -1.5000    0.0000 O   0  0
    1.2990   -0.7500    0.0000 C   0  0
    1.2990    0.7500    0.0000 N   0  0
    0.0000    1.5000    0.0000 C   0  0
    0.0000    3.0000    0.0000 C   0  0
   -1.2991    3.7500    0.0000 C   0  0
   -2.5981    3.0000    0.0000 C   0  0
   -2.5981    1.5000    0.0000 C   0  0
   -1.2990    0.7500    0.0000 C   0  0
   -1.2990   -0.7500    0.0000 N   0  0
   -2.4133   -1.7530    0.0000 C   0  0
   -1.8032   -3.1233    0.0000 C   0  0
   -2.4134   -4.4924    0.0000 C   0  0
   -1.5318   -5.7059    0.0000 C   0  0
   -0.0400   -5.5491    0.0000 C   0  0
    0.5701   -4.1788    0.0000 C   0  0
   -0.3114   -2.9665    0.0000 C   0  0
    0.0000   -1.5000    0.0000 C   0  0
  1  2  2  0
  2  3  1  0
  3  4  1  0
  4  5  2  0
  5  6  1  0
  6  7  2  0
  7  8  1  0
  8  9  2  0
  9  4  1  0
  9 10  1  0
 10 11  1  0
 11 12  2  0
 12 13  1  0
 13 14  2  0
 14 15  1  0
 15 16  2  0
 16 17  1  0
 17 12  1  0
 17 18  2  0
 18  2  1  0
 18 10  1  0
M  END
> <Smiles>
O=c1[nH]c2ccccc2n2cc3ccccc3c12

> <ID>
CHEMBL405989

> <standard_value>
21379.62

> <IC50_uM>
21.37962

> <Activity>
No

> <pIC50>
4.670000018

> <BCI>
0

$$$$

  SciTegic03012415362D

 53 58  0  0  0  0            999 V2000
    6.4966    0.7465    0.0000 C   0  0
    6.4963   -0.7535    0.0000 O   0  0
    5.1969   -1.5045    0.0000 C   0  0
    3.8991   -0.7525    0.0000 C   0  0
    2.5987   -1.5004    0.0000 C   0  0
    1.2990   -0.7500    0.0000 C   0  0  3  0  0  0
    1.2990    0.7500    0.0000 N   0  0
    0.0000    1.5000    0.0000 C   0  0
    0.0000    3.0000    0.0000 O   0  0
   -1.2990    0.7500    0.0000 C   0  0
   -2.5981    1.5000    0.0000 C   0  0
   -3.8971    0.7500    0.0000 C   0  0
   -3.8971   -0.7500    0.0000 C   0  0
   -2.5981   -1.5000    0.0000 C   0  0
   -1.2990   -0.7500    0.0000 C   0  0
    0.0000   -1.5000    0.0000 N   0  0
    2.5965   -3.0004    0.0000 C   0  0
    3.8943   -3.7525    0.0000 C   0  0
    5.1945   -3.0045    0.0000 C   0  0
    6.4915   -3.7597    0.0000 O   0  0
    6.4870   -5.2605    0.0000 C   0  0
    7.7840   -6.0157    0.0000 C   0  0
    7.7795   -7.5165    0.0000 C   0  0
    9.0765   -8.2716    0.0000 C   0  0
    9.0720   -9.7724    0.0000 C   0  0
   10.3690  -10.5276    0.0000 O   0  0
   10.3645  -12.0284    0.0000 C   0  0
   11.6597  -12.7850    0.0000 C   0  0
   12.9648  -12.0439    0.0000 O   0  0
   14.2589  -12.8023    0.0000 C   0  0
   11.6522  -14.2850    0.0000 C   0  0
   10.3493  -15.0284    0.0000 C   0  0
   10.3418  -16.5292    0.0000 C   0  0
   11.5496  -17.3971    0.0000 N   0  0
   11.0766  -18.8205    0.0000 O   0  0
    9.5766  -18.8106    0.0000 C   0  0  3  0  0  0
    8.6865  -20.0188    0.0000 C   0  0
    9.1816  -21.4295    0.0000 C   0  0
    8.2035  -22.5668    0.0000 C   0  0
    8.7026  -23.9822    0.0000 O   0  0
   10.1769  -24.2585    0.0000 C   0  0
    6.7296  -22.2884    0.0000 C   0  0
    5.7486  -23.4243    0.0000 O   0  0
    4.2751  -23.1438    0.0000 C   0  0
    6.2337  -20.8728    0.0000 C   0  0
    4.7595  -20.5912    0.0000 O   0  0
    4.2656  -19.1748    0.0000 C   0  0
    7.2117  -19.7355    0.0000 C   0  0
    9.1226  -17.3810    0.0000 C   0  0
    9.0541  -14.2719    0.0000 C   0  0
    9.0617  -12.7719    0.0000 C   0  0
    7.7641  -12.0177    0.0000 O   0  0
    6.4624  -12.7630    0.0000 C   0  0
  1  2  1  0
  2  3  1  0
  3  4  2  0
  4  5  1  0
  6  5  1  4
  6  7  1  0
  7  8  1  0
  8  9  2  0
  8 10  1  0
 10 11  2  0
 11 12  1  0
 12 13  2  0
 13 14  1  0
 14 15  2  0
 15 10  1  0
 15 16  1  0
 16  6  1  0
  5 17  2  0
 17 18  1  0
 18 19  2  0
 19  3  1  0
 19 20  1  0
 20 21  1  0
 21 22  1  0
 22 23  1  0
 23 24  1  0
 24 25  1  0
 25 26  1  0
 26 27  1  0
 27 28  2  0
 28 29  1  0
 29 30  1  0
 28 31  1  0
 31 32  2  0
 32 33  1  0
 33 34  2  0
 34 35  1  0
 35 36  1  0
 36 37  1  4
 37 38  2  0
 38 39  1  0
 39 40  1  0
 40 41  1  0
 39 42  2  0
 42 43  1  0
 43 44  1  0
 42 45  1  0
 45 46  1  0
 46 47  1  0
 45 48  2  0
 48 37  1  0
 36 49  1  0
 49 33  1  0
 32 50  1  0
 50 51  2  0
 51 27  1  0
 51 52  1  0
 52 53  1  0
M  END
> <Smiles>
COc1cc(C2NC(=O)c3ccccc3N2)ccc1OCCCCCOc1c(OC)cc(C2=NOC(c3cc(OC)c(OC)c(OC)c3)C2)cc1OC

> <ID>
CHEMBL1668710

> <standard_value>
21379.62

> <IC50_uM>
21.37962

> <Activity>
No

> <pIC50>
4.670000018

> <BCI>
0

$$$$

  SciTegic03012415362D

 31 33  0  0  0  0            999 V2000
    1.2948   -3.7516    0.0000 C   0  0
    2.5951   -3.0039    0.0000 C   0  0
    3.8926   -3.7566    0.0000 O   0  0
    2.5973   -1.5031    0.0000 N   0  0
    1.2990   -0.7500    0.0000 C   0  0
    1.2990    0.7500    0.0000 C   0  0
    0.0000    1.5000    0.0000 C   0  0
   -1.2990    0.7500    0.0000 C   0  0
   -2.5988    1.5004    0.0000 S   0  0
   -3.8976    0.7500    0.0000 O   0  0
   -3.8982    2.2498    0.0000 O   0  0
   -2.5998    3.0012    0.0000 N   0  0
   -3.8995    3.7516    0.0000 N   0  0
   -3.9005    5.2525    0.0000 C   0  0
   -2.6017    6.0029    0.0000 O   0  0
   -5.2002    6.0029    0.0000 C   0  0
   -6.4978    5.2502    0.0000 C   0  0
   -7.7984    5.9976    0.0000 C   0  0
   -7.8014    7.4976    0.0000 C   0  0
   -6.5039    8.2502    0.0000 N   0  0
   -5.2034    7.5029    0.0000 C   0  0
   -3.9067    8.2587    0.0000 N   0  0
   -3.9120    9.7595    0.0000 C   0  0
   -2.6171   10.5167    0.0000 C   0  0
   -2.6254   12.0167    0.0000 C   0  0
   -3.9286   12.7595    0.0000 C   0  0
   -3.9369   14.2595    0.0000 Cl  0  0
   -5.2234   12.0024    0.0000 C   0  0
   -5.2152   10.5024    0.0000 C   0  0
   -1.2990   -0.7500    0.0000 C   0  0
    0.0000   -1.5000    0.0000 C   0  0
  1  2  1  0
  2  3  2  0
  2  4  1  0
  4  5  1  0
  5  6  2  0
  6  7  1  0
  7  8  2  0
  8  9  1  0
  9 10  2  0
  9 11  2  0
  9 12  1  0
 12 13  1  0
 13 14  1  0
 14 15  2  0
 14 16  1  0
 16 17  2  0
 17 18  1  0
 18 19  2  0
 19 20  1  0
 20 21  2  0
 21 16  1  0
 21 22  1  0
 22 23  1  0
 23 24  2  0
 24 25  1  0
 25 26  2  0
 26 27  1  0
 26 28  1  0
 28 29  2  0
 29 23  1  0
  8 30  1  0
 30 31  2  0
 31  5  1  0
M  END
> <Smiles>
CC(=O)Nc1ccc(S(=O)(=O)NNC(=O)c2cccnc2Nc2ccc(Cl)cc2)cc1

> <ID>
CHEMBL228208

> <standard_value>
21877.62

> <IC50_uM>
21.87762

> <Activity>
No

> <pIC50>
4.659999925

> <BCI>
0

$$$$

  SciTegic03012415362D

 21 23  0  0  0  0            999 V2000
    6.4983   -0.7414    0.0000 C   0  0
    5.2003   -1.4932    0.0000 C   0  0
    3.8990   -0.7455    0.0000 O   0  0
    2.6003   -1.4977    0.0000 C   0  0
    2.6030   -2.9977    0.0000 O   0  0
    1.2990   -0.7500    0.0000 C   0  0  3  0  0  0
    1.2990    0.7500    0.0000 C   0  0
    0.0000    1.5000    0.0000 C   0  0
   -1.2990    0.7500    0.0000 C   0  0
   -2.8448    0.8292    0.0000 C   0  0
   -3.5948    2.1283    0.0000 C   0  0
   -2.8448    3.4273    0.0000 C   0  0
   -3.5948    4.7264    0.0000 O   0  0
   -1.3448    3.4273    0.0000 C   0  0
   -0.5948    2.1283    0.0000 C   0  0
   -1.2990   -0.7500    0.0000 C   0  0
   -2.5981   -1.5000    0.0000 C   0  0
   -2.5981   -3.0000    0.0000 C   0  0
   -1.2990   -3.7500    0.0000 C   0  0
    0.0000   -3.0000    0.0000 C   0  0
    0.0000   -1.5000    0.0000 C   0  0
  1  2  1  0
  2  3  1  0
  3  4  1  0
  4  5  2  0
  6  4  1  4
  6  7  1  0
  7  8  1  0
  8  9  1  0
  9 10  1  0
 10 11  2  0
 11 12  1  0
 12 13  2  0
 12 14  1  0
 14 15  2  0
 15  9  1  0
  9 16  1  0
 16 17  2  0
 17 18  1  0
 18 19  2  0
 19 20  1  0
 20 21  2  0
 21 16  1  0
 21  6  1  0
M  END
> <Smiles>
CCOC(=O)C1CCC2(C=CC(=O)C=C2)c2ccccc21

> <ID>
CHEMBL1774719

> <standard_value>
21900

> <IC50_uM>
21.9

> <Activity>
No

> <pIC50>
4.659555885

> <BCI>
0

$$$$

  SciTegic03012415362D

 24 26  0  0  0  0            999 V2000
    7.7869   -6.0256    0.0000 C   0  0
    6.4915   -5.2692    0.0000 O   0  0
    5.1876   -6.0124    0.0000 C   0  0
    5.1824   -7.5124    0.0000 C   0  0
    3.8808   -8.2579    0.0000 C   0  0
    2.5844   -7.5034    0.0000 C   0  0
    2.5895   -6.0034    0.0000 C   0  0
    3.8912   -5.2578    0.0000 C   0  0
    3.8933   -3.7570    0.0000 C   0  0
    2.5951   -3.0039    0.0000 C   0  0
    2.5973   -1.5031    0.0000 C   0  0
    3.8976   -0.7553    0.0000 O   0  0
    1.2990   -0.7500    0.0000 C   0  0
    1.2990    0.7500    0.0000 C   0  0
    2.5981    1.5000    0.0000 O   0  0
    0.0000    1.5000    0.0000 C   0  0
   -1.2990    0.7500    0.0000 C   0  0
   -2.7248    1.2135    0.0000 O   0  0
   -3.6065    0.0000    0.0000 C   0  0
   -2.7248   -1.2135    0.0000 C   0  0
   -1.2990   -0.7500    0.0000 C   0  0
    0.0000   -1.5000    0.0000 C   0  0
    0.0031   -3.0008    0.0000 O   0  0
    1.3032   -3.7490    0.0000 C   0  0
  1  2  1  0
  2  3  1  0
  3  4  2  0
  4  5  1  0
  5  6  2  0
  6  7  1  0
  7  8  2  0
  8  3  1  0
  8  9  1  0
  9 10  2  0
 10 11  1  0
 11 12  2  0
 11 13  1  0
 13 14  2  0
 14 15  1  0
 14 16  1  0
 16 17  2  0
 17 18  1  0
 18 19  1  0
 19 20  2  0
 20 21  1  0
 21 17  1  0
 21 22  2  0
 22 13  1  0
 22 23  1  0
 23 24  1  0
M  END
> <Smiles>
COc1ccccc1/C=C/C(=O)c1c(O)cc2occc2c1OC

> <ID>
CHEMBL3291507

> <standard_value>
22200

> <IC50_uM>
22.2

> <Activity>
No

> <pIC50>
4.653647026

> <BCI>
0

$$$$

  SciTegic03012415362D

 24 27  0  0  0  0            999 V2000
    2.5981   -1.5000    0.0000 C   0  0
    1.2990   -0.7500    0.0000 C   0  0
    1.2990    0.7500    0.0000 N   0  0
    0.0000    1.5000    0.0000 C   0  0
    0.0000    3.0000    0.0000 C   0  0
   -1.2991    3.7500    0.0000 C   0  0
   -2.5981    3.0000    0.0000 C   0  0
   -2.5981    1.5000    0.0000 C   0  0
   -1.2990    0.7500    0.0000 C   0  0
   -1.2990   -0.7500    0.0000 C   0  0
   -2.5981   -1.5000    0.0000 O   0  0
    0.0000   -1.5000    0.0000 N   0  0
    0.0031   -3.0008    0.0000 N   0  0
    1.3039   -3.7494    0.0000 C   0  0
    2.6016   -2.9971    0.0000 O   0  0
    1.3070   -5.2502    0.0000 C   0  0
    2.5205   -6.1100    0.0000 C   0  0
    2.0570   -7.5358    0.0000 C   0  0
    2.8070   -8.8348    0.0000 C   0  0
    2.0570  -10.1338    0.0000 C   0  0
    0.5570  -10.1339    0.0000 C   0  0
   -0.1930   -8.8348    0.0000 C   0  0
    0.5570   -7.5358    0.0000 C   0  0
    0.0935   -6.1100    0.0000 O   0  0
  1  2  1  0
  2  3  2  0
  3  4  1  0
  4  5  2  0
  5  6  1  0
  6  7  2  0
  7  8  1  0
  8  9  2  0
  9  4  1  0
  9 10  1  0
 10 11  2  0
 10 12  1  0
 12  2  1  0
 12 13  1  0
 13 14  1  0
 14 15  2  0
 14 16  1  0
 16 17  2  0
 17 18  1  0
 18 19  2  0
 19 20  1  0
 20 21  2  0
 21 22  1  0
 22 23  2  0
 23 18  1  0
 23 24  1  0
 24 16  1  0
M  END
> <Smiles>
Cc1nc2ccccc2c(=O)n1NC(=O)c1cc2ccccc2o1

> <ID>
CHEMBL2297772

> <standard_value>
22300

> <IC50_uM>
22.3

> <Activity>
No

> <pIC50>
4.651695137

> <BCI>
0

$$$$

  SciTegic03012415362D

 24 27  0  0  0  0            999 V2000
    2.5981   -1.5000    0.0000 C   0  0
    1.2990   -0.7500    0.0000 C   0  0
    1.2990    0.7500    0.0000 N   0  0
    0.0000    1.5000    0.0000 C   0  0
    0.0000    3.0000    0.0000 C   0  0
   -1.2991    3.7500    0.0000 C   0  0
   -2.5981    3.0000    0.0000 C   0  0
   -2.5981    1.5000    0.0000 C   0  0
   -1.2990    0.7500    0.0000 C   0  0
   -1.2990   -0.7500    0.0000 C   0  0
   -2.5981   -1.5000    0.0000 O   0  0
    0.0000   -1.5000    0.0000 N   0  0
    0.0031   -3.0008    0.0000 N   0  0
    1.3039   -3.7494    0.0000 C   0  0
    2.6005   -2.9949    0.0000 C   0  0
    3.9021   -3.7404    0.0000 C   0  0
    5.1985   -2.9859    0.0000 C   0  0
    6.5001   -3.7315    0.0000 C   0  0
    6.5053   -5.2314    0.0000 C   0  0
    5.2089   -5.9859    0.0000 C   0  0
    3.9073   -5.2404    0.0000 C   0  0
    2.6108   -5.9949    0.0000 O   0  0
    1.3092   -5.2494    0.0000 C   0  0
    0.0128   -6.0039    0.0000 O   0  0
  1  2  1  0
  2  3  2  0
  3  4  1  0
  4  5  2  0
  5  6  1  0
  6  7  2  0
  7  8  1  0
  8  9  2  0
  9  4  1  0
  9 10  1  0
 10 11  2  0
 10 12  1  0
 12  2  1  0
 12 13  1  0
 13 14  1  0
 14 15  2  0
 15 16  1  0
 16 17  2  0
 17 18  1  0
 18 19  2  0
 19 20  1  0
 20 21  2  0
 21 16  1  0
 21 22  1  0
 22 23  1  0
 23 14  1  0
 23 24  2  0
M  END
> <Smiles>
Cc1nc2ccccc2c(=O)n1Nc1cc2ccccc2oc1=O

> <ID>
CHEMBL2297616

> <standard_value>
22300

> <IC50_uM>
22.3

> <Activity>
No

> <pIC50>
4.651695137

> <BCI>
0

$$$$

  SciTegic03012415362D

 30 34  0  0  1  0            999 V2000
    3.1882    2.6402    0.0000 C   0  0
    2.7248    1.2135    0.0000 C   0  0  3  0  0  0
    3.6065    0.0000    0.0000 O   0  0
    2.7248   -1.2135    0.0000 C   0  0
    3.1882   -2.6401    0.0000 O   0  0
    1.2990   -0.7500    0.0000 C   0  0  1  0  0  0
    1.2990    0.7500    0.0000 C   0  0  1  0  0  0
    0.0000    1.5000    0.0000 C   0  0  1  0  0  0
    0.0000    3.0000    0.0000 O   0  0
   -1.2990    0.7500    0.0000 C   0  0
   -1.2990   -0.7500    0.0000 C   0  0  1  0  0  0
   -2.5981   -1.5000    0.0000 C   0  0  2  0  0  0
   -2.5981    0.0000    0.0000 C   0  0
   -3.8971   -0.7500    0.0000 C   0  0
   -5.1962   -1.5000    0.0000 C   0  0
   -5.1961   -3.0000    0.0000 C   0  0  1  0  0  0
   -6.4952   -3.7501    0.0000 C   0  0
   -6.4598   -2.2505    0.0000 C   0  0
   -7.7762   -4.5304    0.0000 C   0  0
   -6.4952   -5.2501    0.0000 C   0  0
   -5.1961   -6.0000    0.0000 C   0  0
   -3.8971   -5.2500    0.0000 C   0  0
   -3.8971   -3.7500    0.0000 C   0  0  1  0  0  0
   -2.5981   -4.5000    0.0000 C   0  0
   -2.5981   -3.0000    0.0000 C   0  0  1  0  0  0
   -1.2990   -3.7500    0.0000 C   0  0
    0.0000   -3.0000    0.0000 C   0  0  1  0  0  0
    1.2991   -3.7500    0.0000 O   0  0
    0.0000   -1.5000    0.0000 C   0  0  2  0  0  0
    1.2990   -2.2500    0.0000 C   0  0
  2  1  1  4
  2  3  1  0
  3  4  1  0
  4  5  2  0
  6  4  1  6
  6  7  1  0
  7  2  1  1
  7  8  1  0
  8  9  1  6
  8 10  1  0
 11 10  1  6
 11 12  1  0
 12 13  1  6
 12 14  1  0
 14 15  1  0
 16 15  1  6
 16 17  1  0
 17 18  1  0
 17 19  1  0
 17 20  1  0
 20 21  1  0
 21 22  1  0
 22 23  1  0
 23 16  1  0
 23 24  1  6
 23 25  1  0
 25 12  1  0
 25 26  1  6
 26 27  1  0
 27 28  1  6
 27 29  1  0
 29  6  1  0
 29 11  1  0
 29 30  1  6
M  END
> <Smiles>
CC1OC(=O)[C@H]2[C@H]1[C@@H](O)C[C@H]1[C@]3(C)CC[C@H]4C(C)(C)CCC[C@]4(C)[C@H]3C[C@@H](O)[C@]21C

> <ID>
CHEMBL398831

> <standard_value>
22387.21

> <IC50_uM>
22.38721

> <Activity>
No

> <pIC50>
4.650000027

> <BCI>
0

$$$$

  SciTegic03012415362D

 25 28  0  0  0  0            999 V2000
    2.5981   -1.5000    0.0000 C   0  0
    1.2990   -0.7500    0.0000 C   0  0
    1.2990    0.7500    0.0000 N   0  0
    0.0000    1.5000    0.0000 C   0  0
    0.0000    3.0000    0.0000 C   0  0
   -1.2991    3.7500    0.0000 C   0  0
   -2.5981    3.0000    0.0000 C   0  0
   -2.5981    1.5000    0.0000 C   0  0
   -1.2990    0.7500    0.0000 C   0  0
   -1.2990   -0.7500    0.0000 C   0  0
   -2.5981   -1.5000    0.0000 O   0  0
    0.0000   -1.5000    0.0000 N   0  0
    0.0031   -3.0008    0.0000 N   0  0
    1.3039   -3.7494    0.0000 C   0  0
    2.6532   -3.1236    0.0000 S   0  0
    3.6607   -4.2349    0.0000 C   0  0
    2.9152   -5.5365    0.0000 C   0  0
    3.5301   -6.9047    0.0000 N   0  0
    1.4469   -5.2297    0.0000 N   0  0
    0.3292   -6.2312    0.0000 C   0  0
   -1.1235   -5.8791    0.0000 C   0  0
   -2.1577   -6.9656    0.0000 C   0  0
   -1.7339   -8.4045    0.0000 C   0  0
   -0.2758   -8.7569    0.0000 C   0  0
    0.7584   -7.6704    0.0000 C   0  0
  1  2  1  0
  2  3  2  0
  3  4  1  0
  4  5  2  0
  5  6  1  0
  6  7  2  0
  7  8  1  0
  8  9  2  0
  9  4  1  0
  9 10  1  0
 10 11  2  0
 10 12  1  0
 12  2  1  0
 12 13  1  0
 13 14  2  0
 14 15  1  0
 15 16  1  0
 16 17  2  0
 17 18  1  0
 17 19  1  0
 19 14  1  0
 19 20  1  0
 20 21  2  0
 21 22  1  0
 22 23  2  0
 23 24  1  0
 24 25  2  0
 25 20  1  0
M  END
> <Smiles>
Cc1nc2ccccc2c(=O)n1/N=c1\scc(N)n1-c1ccccc1

> <ID>
CHEMBL2297612

> <standard_value>
22500

> <IC50_uM>
22.5

> <Activity>
No

> <pIC50>
4.647817482

> <BCI>
0

$$$$

  SciTegic03012415362D

 17 19  0  0  0  0            999 V2000
    2.5981   -1.5000    0.0000 O   0  0
    1.2990   -0.7500    0.0000 C   0  0
    1.2990    0.7500    0.0000 C   0  0
    2.5981    1.5000    0.0000 C   0  0
    2.5981    3.0000    0.0000 C   0  0
    1.2990    3.7500    0.0000 C   0  0
    0.0000    3.0000    0.0000 C   0  0
    0.0000    1.5000    0.0000 C   0  0
   -1.2990    0.7500    0.0000 O   0  0
   -1.2990   -0.7500    0.0000 C   0  0
   -2.5981   -1.5000    0.0000 C   0  0
   -3.8971   -0.7500    0.0000 O   0  0
   -2.5981   -3.0000    0.0000 C   0  0
   -3.8971   -3.7500    0.0000 O   0  0
   -1.2990   -3.7500    0.0000 C   0  0
    0.0000   -3.0000    0.0000 C   0  0
    0.0000   -1.5000    0.0000 C   0  0
  1  2  2  0
  2  3  1  0
  3  4  2  0
  4  5  1  0
  5  6  2  0
  6  7  1  0
  7  8  2  0
  8  3  1  0
  8  9  1  0
  9 10  1  0
 10 11  2  0
 11 12  1  0
 11 13  1  0
 13 14  1  0
 13 15  2  0
 15 16  1  0
 16 17  2  0
 17  2  1  0
 17 10  1  0
M  END
> <Smiles>
O=c1c2ccccc2oc2c(O)c(O)ccc12

> <ID>
CHEMBL446323

> <standard_value>
22600

> <IC50_uM>
22.6

> <Activity>
No

> <pIC50>
4.645891561

> <BCI>
0

$$$$

  SciTegic03012415362D

 24 27  0  0  1  0            999 V2000
   -0.3019   -0.1127    0.0000 C   0  0
    1.0841    0.4607    0.0000 C   0  0
    1.2875    1.8938    0.0000 C   0  0
    0.1298    2.7647    0.0000 C   0  0
   -1.2811    2.2629    0.0000 C   0  0
   -1.9748    0.8883    0.0000 C   0  0  1  0  0  0
   -2.5846   -0.4821    0.0000 C   0  0
   -3.1861    0.0365    0.0000 O   0  0
   -1.7873   -0.6583    0.0000 C   0  0  2  0  0  0
   -0.8503   -1.9042    0.0000 C   0  0  1  0  0  0
   -1.7521   -3.0986    0.0000 O   0  0
   -0.9092   -4.3394    0.0000 C   0  0
   -1.4175   -5.7506    0.0000 O   0  0
    0.5314   -3.9212    0.0000 C   0  0  3  0  0  0
    1.7071   -4.8501    0.0000 C   0  0
    1.4911   -6.3353    0.0000 N   0  0
    0.1650   -7.0088    0.0000 C   0  0
    0.4153   -8.4878    0.0000 C   0  0
    1.8993   -8.7067    0.0000 N   0  0
    2.5661   -7.3631    0.0000 C   0  0
    4.0435   -7.1040    0.0000 I   0  0
    0.6003   -2.4269    0.0000 C   0  0  2  0  0  0
    1.9785   -1.8347    0.0000 C   0  0
    2.2406   -0.4099    0.0000 C   0  0
  1  2  1  0
  2  3  2  0
  3  4  1  0
  4  5  1  0
  5  6  1  0
  6  7  1  1
  6  8  1  0
  9  8  1  1
  9  6  1  0
  9 10  1  0
 10 11  1  6
 11 12  1  0
 12 13  2  0
 12 14  1  0
 14 15  1  4
 15 16  1  0
 16 17  1  0
 17 18  2  0
 18 19  1  0
 19 20  2  0
 20 16  1  0
 20 21  1  0
 14 22  1  0
 22 10  1  0
 22 23  1  1
 23 24  1  0
 24  2  1  0
M  END
> <Smiles>
C/C1=C\CC[C@@]2(C)O[C@@H]2[C@H]2OC(=O)C(Cn3ccnc3I)[C@@H]2CC1

> <ID>
CHEMBL3334914

> <standard_value>
23000

> <IC50_uM>
23

> <Activity>
No

> <pIC50>
4.638272164

> <BCI>
0

$$$$

  SciTegic03012415362D

 24 25  0  0  0  0            999 V2000
   -1.3080   -5.2401    0.0000 C   0  0
   -0.0114   -5.9942    0.0000 C   0  0
    1.2912   -5.2488    0.0000 O   0  0
    2.5886   -6.0033    0.0000 C   0  0
    2.5834   -7.5033    0.0000 O   0  0
    3.8912   -5.2578    0.0000 C   0  0  3  0  0  0
    3.8933   -3.7570    0.0000 C   0  0
    2.5951   -3.0039    0.0000 C   0  0
    2.5973   -1.5031    0.0000 C   0  0
    1.2990   -0.7500    0.0000 C   0  0
    1.2990    0.7500    0.0000 C   0  0
    0.0000    1.5000    0.0000 C   0  0
   -1.2990    0.7500    0.0000 C   0  0
   -2.6003    1.4977    0.0000 N   0  3
   -3.8983    0.7459    0.0000 O   0  0
   -2.6030    2.9977    0.0000 O   0  5
   -1.2990   -0.7500    0.0000 C   0  0
    0.0000   -1.5000    0.0000 C   0  0
    5.1894   -6.0109    0.0000 C   0  0
    5.1895   -7.5109    0.0000 C   0  0
    6.4885   -8.2610    0.0000 C   0  0
    7.7875   -7.5110    0.0000 C   0  0
    7.7876   -6.0110    0.0000 C   0  0
    6.4885   -5.2610    0.0000 C   0  0
  1  2  1  0
  2  3  1  0
  3  4  1  0
  4  5  2  0
  4  6  1  0
  6  7  1  4
  7  8  1  0
  8  9  1  0
  9 10  1  0
 10 11  2  0
 11 12  1  0
 12 13  2  0
 13 14  1  0
 14 15  2  0
 14 16  1  0
 13 17  1  0
 17 18  2  0
 18 10  1  0
  6 19  1  0
 19 20  2  0
 20 21  1  0
 21 22  2  0
 22 23  1  0
 23 24  2  0
 24 19  1  0
M  CHG  2  14   1  16  -1
M  END
> <Smiles>
CCOC(=O)C(CCCc1ccc([N+](=O)[O-])cc1)c1ccccc1

> <ID>
CHEMBL1774705

> <standard_value>
23200

> <IC50_uM>
23.2

> <Activity>
No

> <pIC50>
4.634512015

> <BCI>
0

$$$$

  SciTegic03012415362D

 26 29  0  0  0  0            999 V2000
    3.8805   -1.4410    0.0000 O   0  0
    2.4133   -1.7530    0.0000 C   0  0
    1.2990   -0.7500    0.0000 C   0  0
    1.2990    0.7500    0.0000 C   0  0
    0.0000    1.5000    0.0000 C   0  0
   -1.2990    0.7500    0.0000 C   0  0
   -1.2990   -0.7500    0.0000 C   0  0
    0.0000   -1.5000    0.0000 C   0  0
    0.3114   -2.9665    0.0000 C   0  0
    1.8032   -3.1233    0.0000 C   0  0
    2.4135   -4.4923    0.0000 C   0  0
    3.9053   -4.6492    0.0000 C   0  0
    4.5154   -6.0195    0.0000 C   0  0
    3.6337   -7.2330    0.0000 C   0  0
    4.2413   -8.6053    0.0000 N   0  3
    3.3579   -9.8176    0.0000 O   0  0
    5.7328   -8.7647    0.0000 O   0  5
    2.1419   -7.0762    0.0000 C   0  0
    1.5318   -5.7059    0.0000 C   0  0
    0.0400   -5.5491    0.0000 C   0  0
   -0.8417   -6.7626    0.0000 O   0  0
   -0.5701   -4.1788    0.0000 N   0  0
   -2.0630   -4.0243    0.0000 C   0  0
   -2.9439   -5.2394    0.0000 C   0  0
   -4.4368   -5.0850    0.0000 C   0  0
   -5.3172   -6.2994    0.0000 Cl  0  0
  1  2  2  0
  2  3  1  0
  3  4  2  0
  4  5  1  0
  5  6  2  0
  6  7  1  0
  7  8  2  0
  8  3  1  0
  8  9  1  0
  9 10  2  0
 10  2  1  0
 10 11  1  0
 11 12  2  0
 12 13  1  0
 13 14  2  0
 14 15  1  0
 15 16  2  0
 15 17  1  0
 14 18  1  0
 18 19  2  0
 19 11  1  0
 19 20  1  0
 20 21  2  0
 20 22  1  0
 22  9  1  0
 22 23  1  0
 23 24  1  0
 24 25  1  0
 25 26  1  0
M  CHG  2  15   1  17  -1
M  END
> <Smiles>
O=C1c2ccccc2-c2c1c1ccc([N+](=O)[O-])cc1c(=O)n2CCCCl

> <ID>
CHEMBL121007

> <standard_value>
23400

> <IC50_uM>
23.4

> <Activity>
No

> <pIC50>
4.630784143

> <BCI>
0

$$$$

  SciTegic03012415362D

 18 20  0  0  0  0            999 V2000
    2.5981   -1.5000    0.0000 O   0  0
    1.2990   -0.7500    0.0000 C   0  0
    1.2990    0.7500    0.0000 C   0  0
    0.0000    1.5000    0.0000 C   0  0
    0.0000    3.0008    0.0000 C   0  0
    1.2978    3.7529    0.0000 C   0  0
    1.2954    5.2529    0.0000 C   0  0
   -0.0048    6.0009    0.0000 C   0  0
   -1.3026    5.2488    0.0000 C   0  0
   -1.3002    3.7488    0.0000 N   0  0
   -1.2990    0.7500    0.0000 N   0  0
   -1.2990   -0.7500    0.0000 C   0  0
   -2.5981   -1.5000    0.0000 C   0  0
   -2.5981   -3.0000    0.0000 C   0  0
   -1.2990   -3.7500    0.0000 C   0  0
   -1.2990   -5.2500    0.0000 Cl  0  0
    0.0000   -3.0000    0.0000 C   0  0
    0.0000   -1.5000    0.0000 C   0  0
  1  2  1  0
  2  3  2  0
  3  4  1  0
  4  5  1  0
  5  6  2  0
  6  7  1  0
  7  8  2  0
  8  9  1  0
  9 10  2  0
 10  5  1  0
  4 11  2  0
 11 12  1  0
 12 13  2  0
 13 14  1  0
 14 15  2  0
 15 16  1  0
 15 17  1  0
 17 18  2  0
 18  2  1  0
 18 12  1  0
M  END
> <Smiles>
Oc1cc(-c2ccccn2)nc2ccc(Cl)cc12

> <ID>
CHEMBL280101

> <standard_value>
23442.29

> <IC50_uM>
23.44229

> <Activity>
No

> <pIC50>
4.629999966

> <BCI>
0

$$$$

  SciTegic03012415362D

 19 21  0  0  0  0            999 V2000
    2.5951   -3.0031    0.0000 C   0  0
    2.5973   -1.5031    0.0000 O   0  0
    1.2990   -0.7500    0.0000 C   0  0
    1.2990    0.7500    0.0000 C   0  0
    0.0000    1.5000    0.0000 C   0  0
   -1.2990    0.7500    0.0000 C   0  0
   -2.5981    1.5000    0.0000 N   0  0
   -3.8971    0.7500    0.0000 C   0  0
   -5.1968    1.5003    0.0000 C   0  0
   -5.1993    3.0004    0.0000 C   0  0
   -6.4995    3.7483    0.0000 C   0  0
   -7.7974    2.9963    0.0000 C   0  0
   -7.7950    1.4963    0.0000 C   0  0
   -6.4948    0.7483    0.0000 N   0  0
   -3.8971   -0.7500    0.0000 C   0  0
   -2.5981   -1.5000    0.0000 C   0  0
   -2.5981   -3.0000    0.0000 O   0  0
   -1.2990   -0.7500    0.0000 C   0  0
    0.0000   -1.5000    0.0000 C   0  0
  1  2  1  0
  2  3  1  0
  3  4  2  0
  4  5  1  0
  5  6  2  0
  6  7  1  0
  7  8  2  0
  8  9  1  0
  9 10  2  0
 10 11  1  0
 11 12  2  0
 12 13  1  0
 13 14  2  0
 14  9  1  0
  8 15  1  0
 15 16  2  0
 16 17  1  0
 16 18  1  0
 18  6  1  0
 18 19  2  0
 19  3  1  0
M  END
> <Smiles>
COc1ccc2nc(-c3ccccn3)cc(O)c2c1

> <ID>
CHEMBL14775

> <standard_value>
23988.33

> <IC50_uM>
23.98833

> <Activity>
No

> <pIC50>
4.619999985

> <BCI>
0

$$$$

  SciTegic03012415362D

 20 23  0  0  0  0            999 V2000
    2.5981   -1.5000    0.0000 O   0  0
    1.2990   -0.7500    0.0000 C   0  0
    1.2990    0.7500    0.0000 N   0  0
    0.0000    1.5000    0.0000 C   0  0
    0.0000    3.0000    0.0000 C   0  0
   -1.2991    3.7500    0.0000 C   0  0
   -1.2991    5.2500    0.0000 Cl  0  0
   -2.5981    3.0000    0.0000 C   0  0
   -3.8971    3.7500    0.0000 Cl  0  0
   -2.5981    1.5000    0.0000 C   0  0
   -1.2990    0.7500    0.0000 C   0  0
   -1.2990   -0.7500    0.0000 N   0  0
   -2.4133   -1.7530    0.0000 C   0  0
   -1.8032   -3.1233    0.0000 C   0  0
   -2.4134   -4.4924    0.0000 C   0  0
   -1.5318   -5.7059    0.0000 C   0  0
   -0.0400   -5.5491    0.0000 C   0  0
    0.5701   -4.1788    0.0000 C   0  0
   -0.3114   -2.9665    0.0000 C   0  0
    0.0000   -1.5000    0.0000 C   0  0
  1  2  2  0
  2  3  1  0
  3  4  1  0
  4  5  2  0
  5  6  1  0
  6  7  1  0
  6  8  2  0
  8  9  1  0
  8 10  1  0
 10 11  2  0
 11  4  1  0
 11 12  1  0
 12 13  1  0
 13 14  2  0
 14 15  1  0
 15 16  2  0
 16 17  1  0
 17 18  2  0
 18 19  1  0
 19 14  1  0
 19 20  2  0
 20  2  1  0
 20 12  1  0
M  END
> <Smiles>
O=c1[nH]c2cc(Cl)c(Cl)cc2n2cc3ccccc3c12

> <ID>
CHEMBL264932

> <standard_value>
23988.33

> <IC50_uM>
23.98833

> <Activity>
No

> <pIC50>
4.619999985

> <BCI>
0

$$$$

  SciTegic03012415362D

 26 29  0  0  1  0            999 V2000
    2.5981   -1.5000    0.0000 C   0  0
    1.2990   -0.7500    0.0000 C   0  0
    1.2990    0.7500    0.0000 C   0  0
    0.0000    1.5000    0.0000 C   0  0
   -1.2990    0.7500    0.0000 C   0  0
   -1.2990   -0.7500    0.0000 C   0  0  1  0  0  0
   -2.5981   -1.5000    0.0000 C   0  0  2  0  0  0
   -3.8783   -2.2816    0.0000 C   0  0
   -2.5616   -0.0200    0.0000 C   0  0
   -3.8225    0.7940    0.0000 C   0  0
   -5.1438    0.0830    0.0000 C   0  0
   -5.1892   -1.4164    0.0000 O   0  0
   -6.4192    0.8724    0.0000 C   0  0
   -7.7406    0.1625    0.0000 O   0  0
   -6.3733    2.3717    0.0000 C   0  0
   -5.0519    3.0815    0.0000 C   0  0
   -4.6956    4.5378    0.0000 N   0  0
   -3.1998    4.6488    0.0000 C   0  0
   -2.6319    3.2605    0.0000 O   0  0
   -3.7764    2.2921    0.0000 C   0  0
   -2.5981   -3.0000    0.0000 C   0  0  1  0  0  0
   -3.8971   -3.7500    0.0000 C   0  0
   -1.2990   -3.7500    0.0000 C   0  0
    0.0000   -3.0000    0.0000 C   0  0
    0.0000   -1.5000    0.0000 C   0  0  2  0  0  0
    1.2990   -2.2500    0.0000 C   0  0
  1  2  2  0
  2  3  1  0
  3  4  1  0
  4  5  1  0
  6  5  1  6
  6  7  1  0
  7  8  1  6
  7  9  1  0
  9 10  1  0
 10 11  2  0
 11 12  1  0
 11 13  1  0
 13 14  1  0
 13 15  2  0
 15 16  1  0
 16 17  1  0
 17 18  2  0
 18 19  1  0
 19 20  1  0
 20 10  1  0
 20 16  2  0
  7 21  1  0
 21 22  1  6
 21 23  1  0
 23 24  1  0
 24 25  1  0
 25  2  1  0
 25  6  1  0
 25 26  1  6
M  END
> <Smiles>
C=C1CCC[C@H]2[C@](C)(Cc3c(O)c(O)cc4ncoc34)[C@@H](C)CC[C@]12C

> <ID>
CHEMBL1668118

> <standard_value>
24000

> <IC50_uM>
24

> <Activity>
No

> <pIC50>
4.619788758

> <BCI>
0

$$$$

  SciTegic03012415362D

 29 32  0  0  1  0            999 V2000
    7.7938   -3.0046    0.0000 C   0  0
    6.4946   -3.7543    0.0000 O   0  0
    5.1945   -3.0045    0.0000 C   0  0
    5.1969   -1.5045    0.0000 C   0  0
    3.8991   -0.7525    0.0000 C   0  0
    2.5987   -1.5004    0.0000 C   0  0
    1.2990   -0.7500    0.0000 C   0  0
    1.2990    0.7500    0.0000 C   0  0
    2.5987    1.5004    0.0000 C   0  0
    3.8991    0.7525    0.0000 C   0  0
    5.1969    1.5046    0.0000 C   0  0
    5.1945    3.0046    0.0000 C   0  0
    6.4946    3.7544    0.0000 O   0  0
    7.7938    3.0046    0.0000 C   0  0
    3.8943    3.7525    0.0000 C   0  0
    3.8888    5.2533    0.0000 O   0  0
    2.5875    5.9994    0.0000 C   0  0
    2.5964    3.0004    0.0000 C   0  0
    0.0000    1.5000    0.0000 C   0  0
   -1.2990    0.7500    0.0000 N   0  0  3  0  0  0
   -2.7248    1.2135    0.0000 C   0  0
   -3.6065    0.0000    0.0000 C   0  0
   -2.7248   -1.2135    0.0000 C   0  0
   -1.2990   -0.7500    0.0000 C   0  0  1  0  0  0
    0.0000   -1.5000    0.0000 C   0  0
    2.5965   -3.0004    0.0000 C   0  0
    3.8943   -3.7525    0.0000 C   0  0
    3.8888   -5.2533    0.0000 O   0  0
    2.5875   -5.9994    0.0000 C   0  0
  1  2  1  0
  2  3  1  0
  3  4  2  0
  4  5  1  0
  5  6  2  0
  6  7  1  0
  7  8  2  0
  8  9  1  0
  9 10  2  0
 10 11  1  0
 11 12  2  0
 12 13  1  0
 13 14  1  0
 12 15  1  0
 15 16  1  0
 16 17  1  0
 15 18  2  0
 18  9  1  0
  8 19  1  0
 20 19  1  4
 20 21  1  0
 21 22  1  0
 22 23  1  0
 24 23  1  6
 24 20  1  0
 24 25  1  0
 25  7  1  0
  6 26  1  0
 26 27  2  0
 27  3  1  0
 27 28  1  0
 28 29  1  0
M  END
> <Smiles>
COc1ccc(C2=C(c3ccc(OC)c(OC)c3)CN3CCC[C@H]3C2)cc1OC

> <ID>
CHEMBL2180684

> <standard_value>
24200

> <IC50_uM>
24.2

> <Activity>
No

> <pIC50>
4.616184634

> <BCI>
0

$$$$

  SciTegic03012415362D

 33 36  0  0  1  0            999 V2000
    3.2482   -2.4135    0.0000 C   0  0
    1.7710   -2.1532    0.0000 C   0  0
    0.8073   -3.3027    0.0000 O   0  0
    1.2990   -0.7500    0.0000 C   0  0  1  0  0  0
    2.5793    0.0316    0.0000 C   0  0
    1.2990    0.7500    0.0000 C   0  0
    0.0000    1.5000    0.0000 C   0  0
   -1.2990    0.7500    0.0000 C   0  0  1  0  0  0
   -1.2990   -0.7500    0.0000 C   0  0  1  0  0  0
   -1.2990   -2.2500    0.0000 C   0  0
   -2.5981   -1.5000    0.0000 C   0  0
   -3.8971   -0.7500    0.0000 C   0  0
   -3.8971    0.7500    0.0000 C   0  0  1  0  0  0
   -5.1962    0.0000    0.0000 C   0  0
   -5.1962    1.5000    0.0000 C   0  0  2  0  0  0
   -6.4952    0.7500    0.0000 C   0  0
   -7.7942    1.5000    0.0000 C   0  0
   -7.7588    0.0004    0.0000 C   0  0
   -9.0753    2.2803    0.0000 C   0  0
   -7.7942    3.0000    0.0000 C   0  0
   -6.4952    3.7500    0.0000 C   0  0
   -5.1962    3.0000    0.0000 C   0  0  1  0  0  0
   -5.1962    4.5000    0.0000 C   0  0
   -3.8971    3.7500    0.0000 C   0  0
   -2.5981    3.0000    0.0000 C   0  0
   -2.5981    1.5000    0.0000 C   0  0  2  0  0  0
   -1.2990    2.2500    0.0000 C   0  0
    0.0000   -1.5000    0.0000 C   0  0  2  0  0  0
   -0.0031   -3.0008    0.0000 C   0  0
   -1.3039   -3.7494    0.0000 C   0  0
   -1.3070   -5.2502    0.0000 C   0  0
   -2.6071   -5.9984    0.0000 O   0  0
   -0.0092   -6.0025    0.0000 O   0  0
  1  2  1  0
  2  3  2  0
  2  4  1  0
  4  5  1  1
  4  6  1  0
  6  7  1  0
  8  7  1  1
  8  9  1  0
  9 10  1  1
  9 11  1  0
 11 12  1  0
 12 13  1  0
 13 14  1  6
 13 15  1  0
 15 16  1  6
 16 17  1  0
 17 18  1  0
 17 19  1  0
 17 20  1  0
 20 21  1  0
 21 22  1  0
 22 15  1  0
 22 23  1  1
 22 24  1  0
 24 25  1  0
 25 26  1  0
 26  8  1  0
 26 13  1  0
 26 27  1  1
  9 28  1  0
 28  4  1  0
 28 29  1  1
 29 30  1  0
 30 31  1  0
 31 32  2  0
 31 33  1  0
M  END
> <Smiles>
CC(=O)[C@@]1(C)CC[C@H]2[C@@](C)(CC[C@@]3(C)[C@@H]4CC(C)(C)CC[C@]4(C)CC[C@]23C)[C@@H]1CCC(=O)O

> <ID>
CHEMBL457378

> <standard_value>
24600

> <IC50_uM>
24.6

> <Activity>
No

> <pIC50>
4.609064893

> <BCI>
0

$$$$

  SciTegic03012415362D

 24 26  0  0  0  0            999 V2000
    2.5981   -1.5000    0.0000 C   0  0
    1.2990   -0.7500    0.0000 C   0  0
    1.2990    0.7500    0.0000 N   0  0
    0.0000    1.5000    0.0000 C   0  0
    0.0000    3.0000    0.0000 C   0  0
   -1.2991    3.7500    0.0000 C   0  0
   -2.5981    3.0000    0.0000 C   0  0
   -2.5981    1.5000    0.0000 C   0  0
   -1.2990    0.7500    0.0000 C   0  0
   -1.2990   -0.7500    0.0000 C   0  0
   -2.5981   -1.5000    0.0000 O   0  0
    0.0000   -1.5000    0.0000 N   0  0
    0.0031   -3.0008    0.0000 N   0  0
    1.3039   -3.7494    0.0000 C   0  0
    1.3070   -5.2502    0.0000 C   0  0
    0.0093   -6.0025    0.0000 O   0  0
    2.6078   -5.9988    0.0000 N   0  0
    2.6109   -7.4996    0.0000 N   0  0
    3.9117   -8.2481    0.0000 C   0  0
    3.9170   -9.7482    0.0000 C   0  0
    5.2187  -10.4937    0.0000 C   0  0
    6.5151   -9.7392    0.0000 C   0  0
    6.5099   -8.2392    0.0000 C   0  0
    5.2083   -7.4937    0.0000 C   0  0
  1  2  1  0
  2  3  2  0
  3  4  1  0
  4  5  2  0
  5  6  1  0
  6  7  2  0
  7  8  1  0
  8  9  2  0
  9  4  1  0
  9 10  1  0
 10 11  2  0
 10 12  1  0
 12  2  1  0
 12 13  1  0
 13 14  1  0
 14 15  1  0
 15 16  2  0
 15 17  1  0
 17 18  1  0
 18 19  1  0
 19 20  2  0
 20 21  1  0
 21 22  2  0
 22 23  1  0
 23 24  2  0
 24 19  1  0
M  END
> <Smiles>
Cc1nc2ccccc2c(=O)n1NCC(=O)NNc1ccccc1

> <ID>
CHEMBL2297615

> <standard_value>
24800

> <IC50_uM>
24.8

> <Activity>
No

> <pIC50>
4.605548319

> <BCI>
0

$$$$

  SciTegic03012415362D

 18 20  0  0  1  0            999 V2000
    4.0920   -2.5016    0.0000 C   0  0
    3.4471   -1.1473    0.0000 C   0  0
    4.1764    0.1634    0.0000 C   0  0
    5.6655    0.3438    0.0000 O   0  0
    3.1552    1.2621    0.0000 O   0  0
    1.7873    0.6583    0.0000 C   0  0  2  0  0  0
    0.8503    1.9042    0.0000 C   0  0  1  0  0  0
    0.4851    3.4204    0.0000 O   0  0
   -0.6003    2.4269    0.0000 C   0  0  1  0  0  0
   -1.4143    3.6868    0.0000 C   0  0
   -1.9785    1.8347    0.0000 C   0  0
   -2.2406    0.4099    0.0000 C   0  0
   -1.0841   -0.4607    0.0000 C   0  0
   -1.2875   -1.8938    0.0000 C   0  0
   -2.6735   -2.4674    0.0000 C   0  0
   -0.1298   -2.7647    0.0000 C   0  0
    1.2811   -2.2629    0.0000 C   0  0
    1.9748   -0.8884    0.0000 C   0  0  1  0  0  0
  1  2  2  0
  2  3  1  0
  3  4  2  0
  3  5  1  0
  6  5  1  1
  6  7  1  0
  7  8  1  6
  8  9  1  0
  9  7  1  0
  9 10  1  6
  9 11  1  0
 11 12  1  0
 12 13  1  0
 13 14  2  0
 14 15  1  0
 14 16  1  0
 16 17  1  0
 18 17  1  6
 18  2  1  0
 18  6  1  0
M  END
> <Smiles>
C=C1C(=O)O[C@@H]2[C@H]3O[C@]3(C)CC/C=C(\C)CC[C@@H]12

> <ID>
CHEMBL388727

> <standard_value>
25100

> <IC50_uM>
25.1

> <Activity>
No

> <pIC50>
4.600326279

> <BCI>
0

$$$$

  SciTegic03012415362D

 22 24  0  0  0  0            999 V2000
    1.2948   -3.7516    0.0000 C   0  0
    2.5951   -3.0039    0.0000 C   0  0
    3.8926   -3.7566    0.0000 O   0  0
    2.5973   -1.5031    0.0000 N   0  0
    1.2990   -0.7500    0.0000 C   0  0
    1.2990    0.7500    0.0000 C   0  0
    0.0000    1.5000    0.0000 C   0  0
   -1.2990    0.7500    0.0000 C   0  0
   -2.5981    1.5000    0.0000 N   0  0
   -3.8971    0.7500    0.0000 C   0  0
   -5.1968    1.5003    0.0000 C   0  0
   -5.1993    3.0004    0.0000 C   0  0
   -6.4995    3.7483    0.0000 C   0  0
   -7.7974    2.9963    0.0000 C   0  0
   -7.7950    1.4963    0.0000 C   0  0
   -9.0928    0.7442    0.0000 F   0  0
   -6.4948    0.7483    0.0000 C   0  0
   -3.8971   -0.7500    0.0000 C   0  0
   -2.5981   -1.5000    0.0000 C   0  0
   -2.5981   -3.0000    0.0000 O   0  0
   -1.2990   -0.7500    0.0000 C   0  0
    0.0000   -1.5000    0.0000 C   0  0
  1  2  1  0
  2  3  2  0
  2  4  1  0
  4  5  1  0
  5  6  2  0
  6  7  1  0
  7  8  2  0
  8  9  1  0
  9 10  2  0
 10 11  1  0
 11 12  2  0
 12 13  1  0
 13 14  2  0
 14 15  1  0
 15 16  1  0
 15 17  2  0
 17 11  1  0
 10 18  1  0
 18 19  2  0
 19 20  1  0
 19 21  1  0
 21  8  1  0
 21 22  2  0
 22  5  1  0
M  END
> <Smiles>
CC(=O)Nc1ccc2nc(-c3cccc(F)c3)cc(O)c2c1

> <ID>
CHEMBL115022

> <standard_value>
25703.96

> <IC50_uM>
25.70396

> <Activity>
No

> <pIC50>
4.589999963

> <BCI>
0

$$$$

  SciTegic03012415362D

 20 22  0  0  0  0            999 V2000
    2.5981   -1.5000    0.0000 C   0  0
    1.2990   -0.7500    0.0000 C   0  0
    1.2990    0.7500    0.0000 C   0  0
    0.0000    1.5000    0.0000 C   0  0
    0.0000    3.0000    0.0000 O   0  0
   -1.2990    0.7500    0.0000 C   0  0
   -1.2990   -0.7500    0.0000 C   0  0
    0.0000   -1.5000    0.0000 C   0  0
   -2.5981   -1.5000    0.0000 C   0  0
   -2.5981   -3.0000    0.0000 O   0  0
   -3.8971   -0.7500    0.0000 C   0  0
   -5.1962   -1.5000    0.0000 C   0  0
   -6.4952   -0.7500    0.0000 C   0  0
   -7.7942   -1.5000    0.0000 O   0  0
   -6.4952    0.7500    0.0000 C   0  0
   -5.1962    1.5000    0.0000 C   0  0
   -5.1962    3.0000    0.0000 O   0  0
   -3.8971    0.7500    0.0000 C   0  0
   -2.5981    1.5000    0.0000 C   0  0
   -2.5981    3.0000    0.0000 O   0  0
  1  2  1  0
  2  3  2  0
  3  4  1  0
  4  5  1  0
  4  6  2  0
  6  7  1  0
  7  8  2  0
  8  2  1  0
  7  9  1  0
  9 10  2  0
  9 11  1  0
 11 12  2  0
 12 13  1  0
 13 14  1  0
 13 15  2  0
 15 16  1  0
 16 17  1  0
 16 18  2  0
 18 11  1  0
 18 19  1  0
 19  6  1  0
 19 20  2  0
M  END
> <Smiles>
Cc1cc(O)c2c(c1)C(=O)c1cc(O)cc(O)c1C2=O

> <ID>
CHEMBL289277

> <standard_value>
25703.96

> <IC50_uM>
25.70396

> <Activity>
No

> <pIC50>
4.589999963

> <BCI>
0

$$$$

  SciTegic03012415362D

 20 20  0  0  0  0            999 V2000
    9.0983   -0.7529    0.0000 C   0  0
    7.7988   -1.5020    0.0000 C   0  0
    6.4990   -0.7516    0.0000 N   0  0
    6.5026    0.7492    0.0000 C   0  0
    7.8029    1.4969    0.0000 C   0  0
    5.1988   -1.5012    0.0000 C   0  0
    5.1983   -3.0012    0.0000 S   0  0
    3.8990   -0.7508    0.0000 S   0  0
    2.5988   -1.5004    0.0000 S   0  0
    2.5983   -3.0004    0.0000 O   0  0
    3.8975   -2.2510    0.0000 O   0  0
    1.2990   -0.7500    0.0000 C   0  0
    1.2990    0.7500    0.0000 C   0  0
    0.0000    1.5000    0.0000 C   0  0
   -1.2990    0.7500    0.0000 C   0  0
   -1.2990   -0.7500    0.0000 C   0  0
    0.0000   -1.5000    0.0000 C   0  0
   -0.0031   -3.0008    0.0000 N   0  3
   -1.3032   -3.7490    0.0000 O   0  0
    1.2947   -3.7531    0.0000 O   0  5
  1  2  1  0
  2  3  1  0
  3  4  1  0
  4  5  1  0
  3  6  1  0
  6  7  2  0
  6  8  1  0
  8  9  1  0
  9 10  2  0
  9 11  2  0
  9 12  1  0
 12 13  2  0
 13 14  1  0
 14 15  2  0
 15 16  1  0
 16 17  2  0
 17 12  1  0
 17 18  1  0
 18 19  2  0
 18 20  1  0
M  CHG  2  18   1  20  -1
M  END
> <Smiles>
CCN(CC)C(=S)SS(=O)(=O)c1ccccc1[N+](=O)[O-]

> <ID>
CHEMBL298919

> <standard_value>
26000

> <IC50_uM>
26

> <Activity>
No

> <pIC50>
4.585026652

> <BCI>
0

$$$$

  SciTegic03012415362D

 34 38  0  0  1  0            999 V2000
    2.5228   -3.0436    0.0000 C   0  0
    1.2626   -2.2300    0.0000 C   0  0
    1.2990   -0.7500    0.0000 C   0  0  1  0  0  0
    2.5793    0.0316    0.0000 O   0  0
    1.2990    0.7500    0.0000 C   0  0
    2.5981    1.5000    0.0000 O   0  0
    0.0000    1.5000    0.0000 O   0  0
   -1.2990    0.7500    0.0000 C   0  0
   -1.2990   -0.7500    0.0000 C   0  0
    0.0000   -1.5000    0.0000 C   0  0
    0.0000   -3.0000    0.0000 C   0  0
   -1.2990   -3.7500    0.0000 C   0  0
   -2.5981   -3.0000    0.0000 N   0  0
   -2.5981   -1.5000    0.0000 C   0  0
   -3.8971   -0.7500    0.0000 O   0  0
   -3.7124   -4.0030    0.0000 C   0  0  3  0  0  0
   -5.1785   -3.6942    0.0000 C   0  0
   -6.1813   -4.8108    0.0000 C   0  0
   -5.7156   -6.2367    0.0000 O   0  0
   -7.6499   -4.5015    0.0000 O   0  0
   -8.6522   -5.6175    0.0000 C   0  0
   -3.1022   -5.3733    0.0000 C   0  0
   -3.7125   -6.7424    0.0000 C   0  0
   -2.8308   -7.9559    0.0000 C   0  0
   -3.4409   -9.3262    0.0000 C   0  0
   -2.5592  -10.5397    0.0000 C   0  0
   -3.1668  -11.9121    0.0000 N   0  3
   -2.2834  -13.1243    0.0000 O   0  0
   -4.6583  -12.0715    0.0000 O   0  5
   -1.0674  -10.3829    0.0000 C   0  0
   -0.4573   -9.0126    0.0000 C   0  0
   -1.3390   -7.7991    0.0000 C   0  0
   -0.7289   -6.4288    0.0000 N   0  0
   -1.6105   -5.2165    0.0000 C   0  0
  1  2  1  0
  2  3  1  0
  3  4  1  1
  3  5  1  0
  5  6  2  0
  5  7  1  0
  7  8  1  0
  8  9  1  0
  9 10  2  0
 10  3  1  0
 10 11  1  0
 11 12  2  0
 12 13  1  0
 13 14  1  0
 14  9  1  0
 14 15  2  0
 13 16  1  0
 16 17  1  4
 17 18  1  0
 18 19  2  0
 18 20  1  0
 20 21  1  0
 16 22  1  0
 22 23  2  0
 23 24  1  0
 24 25  2  0
 25 26  1  0
 26 27  1  0
 27 28  2  0
 27 29  1  0
 26 30  2  0
 30 31  1  0
 31 32  2  0
 32 24  1  0
 32 33  1  0
 33 34  2  0
 34 22  1  0
 34 12  1  0
M  CHG  2  27   1  29  -1
M  END
> <Smiles>
CC[C@@]1(O)C(=O)OCc2c1cc1n(c2=O)C(CC(=O)OC)c2cc3cc([N+](=O)[O-])ccc3nc2-1

> <ID>
CHEMBL295190

> <standard_value>
26200

> <IC50_uM>
26.2

> <Activity>
No

> <pIC50>
4.581698709

> <BCI>
0

$$$$

  SciTegic03012415362D

 37 41  0  0  0  0            999 V2000
    2.5981   -1.5000    0.0000 C   0  0
    1.2990   -0.7500    0.0000 C   0  0
    1.2990    0.7500    0.0000 C   0  0
    0.0000    1.5000    0.0000 C   0  0
   -1.2990    0.7500    0.0000 C   0  0
   -2.6003    1.4977    0.0000 N   0  0
   -3.8990    0.7455    0.0000 C   0  0
   -3.8964   -0.7545    0.0000 O   0  0
   -5.2003    1.4932    0.0000 C   0  0
   -6.4994    0.7432    0.0000 C   0  0
   -7.7985    1.4932    0.0000 C   0  0
   -7.7985    2.9932    0.0000 C   0  0
   -9.0967    3.7462    0.0000 C   0  0
   -9.0947    5.2471    0.0000 N   0  0
  -10.3911    6.0016    0.0000 C   0  0
  -10.3859    7.5016    0.0000 C   0  0
   -9.0843    8.2471    0.0000 N   0  0
   -9.0792    9.7471    0.0000 C   0  0
   -7.7879    7.4927    0.0000 C   0  0
   -7.7930    5.9927    0.0000 C   0  0
   -6.4995    3.7432    0.0000 C   0  0
   -5.2004    2.9933    0.0000 C   0  0
   -1.2990   -0.7500    0.0000 C   0  0
    0.0000   -1.5000    0.0000 C   0  0
   -0.0031   -3.0008    0.0000 N   0  0
   -1.3039   -3.7494    0.0000 C   0  0
   -1.3092   -5.2494    0.0000 N   0  0
   -2.6108   -5.9949    0.0000 C   0  0
   -3.9072   -5.2404    0.0000 C   0  0
   -3.9020   -3.7404    0.0000 C   0  0
   -5.1991   -2.9856    0.0000 C   0  0
   -6.5020   -3.7290    0.0000 C   0  0
   -7.7973   -2.9724    0.0000 C   0  0
   -7.7897   -1.4725    0.0000 C   0  0
   -6.4869   -0.7290    0.0000 N   0  0
   -5.1917   -1.4855    0.0000 C   0  0
   -2.6004   -2.9949    0.0000 N   0  0
  1  2  1  0
  2  3  2  0
  3  4  1  0
  4  5  2  0
  5  6  1  0
  6  7  1  0
  7  8  2  0
  7  9  1  0
  9 10  2  0
 10 11  1  0
 11 12  2  0
 12 13  1  0
 13 14  1  0
 14 15  1  0
 15 16  1  0
 16 17  1  0
 17 18  1  0
 17 19  1  0
 19 20  1  0
 20 14  1  0
 12 21  1  0
 21 22  2  0
 22  9  1  0
  5 23  1  0
 23 24  2  0
 24  2  1  0
 24 25  1  0
 25 26  1  0
 26 27  2  0
 27 28  1  0
 28 29  2  0
 29 30  1  0
 30 31  1  0
 31 32  2  0
 32 33  1  0
 33 34  2  0
 34 35  1  0
 35 36  2  0
 36 31  1  0
 30 37  2  0
 37 26  1  0
M  END
> <Smiles>
Cc1ccc(NC(=O)c2ccc(CN3CCN(C)CC3)cc2)cc1Nc1nccc(-c2cccnc2)n1

> <ID>
CHEMBL941

> <standard_value>
26300

> <IC50_uM>
26.3

> <Activity>
No

> <pIC50>
4.580044252

> <BCI>
0

$$$$

  SciTegic03012415362D

 27 31  0  0  0  0            999 V2000
    3.8805   -1.4410    0.0000 O   0  0
    2.4133   -1.7530    0.0000 C   0  0
    1.2990   -0.7500    0.0000 C   0  0
    1.2990    0.7500    0.0000 C   0  0
    0.0000    1.5000    0.0000 C   0  0
   -1.2990    0.7500    0.0000 C   0  0
   -1.2990   -0.7500    0.0000 C   0  0
    0.0000   -1.5000    0.0000 C   0  0
    0.3114   -2.9665    0.0000 C   0  0
    1.8032   -3.1233    0.0000 C   0  0
    2.4135   -4.4923    0.0000 C   0  0
    3.9053   -4.6492    0.0000 C   0  0
    4.5154   -6.0195    0.0000 C   0  0
    3.6337   -7.2330    0.0000 C   0  0
    2.1419   -7.0762    0.0000 C   0  0
    1.5318   -5.7059    0.0000 C   0  0
    0.0400   -5.5491    0.0000 C   0  0
   -0.8417   -6.7626    0.0000 O   0  0
   -0.5701   -4.1788    0.0000 N   0  0
   -2.0630   -4.0243    0.0000 C   0  0
   -2.9439   -5.2394    0.0000 C   0  0
   -4.4368   -5.0850    0.0000 C   0  0
   -5.3190   -6.2982    0.0000 C   0  0
   -6.8107   -6.1408    0.0000 C   0  0
   -7.4203   -4.7702    0.0000 C   0  0
   -6.5381   -3.5571    0.0000 N   0  0
   -5.0464   -3.7144    0.0000 C   0  0
  1  2  2  0
  2  3  1  0
  3  4  2  0
  4  5  1  0
  5  6  2  0
  6  7  1  0
  7  8  2  0
  8  3  1  0
  8  9  1  0
  9 10  2  0
 10  2  1  0
 10 11  1  0
 11 12  2  0
 12 13  1  0
 13 14  2  0
 14 15  1  0
 15 16  2  0
 16 11  1  0
 16 17  1  0
 17 18  2  0
 17 19  1  0
 19  9  1  0
 19 20  1  0
 20 21  1  0
 21 22  1  0
 22 23  2  0
 23 24  1  0
 24 25  2  0
 25 26  1  0
 26 27  2  0
 27 22  1  0
M  END
> <Smiles>
O=C1c2ccccc2-c2c1c1ccccc1c(=O)n2CCc1cccnc1

> <ID>
CHEMBL224331

> <standard_value>
27500

> <IC50_uM>
27.5

> <Activity>
No

> <pIC50>
4.560667306

> <BCI>
0

$$$$

  SciTegic03012415362D

 16 16  0  0  0  0            999 V2000
    5.1887   -6.0105    0.0000 C   0  0
    3.8912   -5.2578    0.0000 C   0  0
    3.8933   -3.7570    0.0000 C   0  0
    2.5951   -3.0039    0.0000 C   0  0
    2.5973   -1.5031    0.0000 S   0  0
    1.2990   -0.7500    0.0000 C   0  0
    1.2990    0.7500    0.0000 C   0  0
    2.5981    1.5000    0.0000 O   0  0
    0.0000    1.5000    0.0000 C   0  0
   -1.2990    0.7500    0.0000 C   0  0
   -1.2990   -0.7500    0.0000 C   0  0
   -2.5981   -1.5000    0.0000 O   0  0
    0.0000   -1.5000    0.0000 C   0  0
    0.0031   -3.0008    0.0000 C   0  0
   -1.2946   -3.7531    0.0000 C   0  0
    1.3032   -3.7490    0.0000 O   0  0
  1  2  1  0
  2  3  1  0
  3  4  1  0
  4  5  1  0
  5  6  1  0
  6  7  2  0
  7  8  1  0
  7  9  1  0
  9 10  2  0
 10 11  1  0
 11 12  1  0
 11 13  2  0
 13  6  1  0
 13 14  1  0
 14 15  1  0
 14 16  2  0
M  END
> <Smiles>
CCCCSc1c(O)ccc(O)c1C(C)=O

> <ID>
CHEMBL404774

> <standard_value>
27500

> <IC50_uM>
27.5

> <Activity>
No

> <pIC50>
4.560667306

> <BCI>
0

$$$$

  SciTegic03012415362D

 26 30  0  0  0  0            999 V2000
    2.5981   -1.5000    0.0000 O   0  0
    1.2990   -0.7500    0.0000 C   0  0
    1.2990    0.7500    0.0000 N   0  0
    0.0000    1.5000    0.0000 C   0  0
    0.0000    3.0000    0.0000 C   0  0
   -1.2991    3.7500    0.0000 C   0  0
   -2.5981    3.0000    0.0000 C   0  0
   -2.5981    1.5000    0.0000 C   0  0
   -1.2990    0.7500    0.0000 C   0  0
   -1.2990   -0.7500    0.0000 C   0  0
   -2.4133   -1.7530    0.0000 N   0  0
   -1.8032   -3.1233    0.0000 C   0  0
   -2.5536   -4.4230    0.0000 C   0  0
   -4.0444   -4.5346    0.0000 C   0  0
   -4.6946   -5.8864    0.0000 C   0  0
   -3.8489   -7.1253    0.0000 C   0  0
   -2.3532   -7.0124    0.0000 C   0  0
   -1.7031   -5.6606    0.0000 C   0  0
   -0.3114   -2.9665    0.0000 C   0  0
    0.6929   -4.0817    0.0000 C   0  0
    0.3385   -5.5341    0.0000 C   0  0
    1.4233   -6.5700    0.0000 C   0  0
    2.8629   -6.1484    0.0000 C   0  0
    3.2176   -4.6910    0.0000 C   0  0
    2.1327   -3.6551    0.0000 C   0  0
    0.0000   -1.5000    0.0000 C   0  0
  1  2  2  0
  2  3  1  0
  3  4  1  0
  4  5  2  0
  5  6  1  0
  6  7  2  0
  7  8  1  0
  8  9  2  0
  9  4  1  0
  9 10  1  0
 10 11  1  0
 11 12  1  0
 12 13  1  0
 13 14  2  0
 14 15  1  0
 15 16  2  0
 16 17  1  0
 17 18  2  0
 18 13  1  0
 12 19  2  0
 19 20  1  0
 20 21  2  0
 21 22  1  0
 22 23  2  0
 23 24  1  0
 24 25  2  0
 25 20  1  0
 19 26  1  0
 26  2  1  0
 26 10  2  0
M  END
> <Smiles>
O=c1[nH]c2ccccc2c2[nH]c(-c3ccccc3)c(-c3ccccc3)c12

> <ID>
CHEMBL4635858

> <standard_value>
27500

> <IC50_uM>
27.5

> <Activity>
No

> <pIC50>
4.560667306

> <BCI>
0

$$$$

  SciTegic03012415362D

 35 40  0  0  1  0            999 V2000
    9.3610    7.8644    0.0000 C   0  0
   10.6800    7.1500    0.0000 C   0  0
   11.9942    7.8730    0.0000 C   0  0
   12.0200    6.3900    0.0000 C   0  0
   12.0200    4.8600    0.0000 C   0  0
   10.6800    4.0800    0.0000 C   0  0  1  0  0  0
   10.6800    2.5000    0.0000 C   0  0
    9.3600    1.7500    0.0000 C   0  0
    8.0200    2.5400    0.0000 C   0  0  2  0  0  0
    8.0144    1.5400    0.0000 C   0  0
    8.0200    4.0900    0.0000 C   0  0  1  0  0  0
    9.5200    3.6900    0.0000 O   0  0
   12.1700    3.6900    0.0000 C   0  0
   13.6577    3.4985    0.0000 O   0  0
    9.3600    4.8300    0.0000 C   0  0  2  0  0  0
    9.3600    6.3900    0.0000 C   0  0
    6.6800    4.8600    0.0000 C   0  0  1  0  0  0
    6.6800    6.3600    0.0000 Br  0  0
    5.3400    4.0900    0.0000 C   0  0
    5.3400    2.5600    0.0000 C   0  0  2  0  0  0
    4.0000    1.7900    0.0000 C   0  0  1  0  0  0
    4.0000    3.2900    0.0000 C   0  0
    2.6600    2.5600    0.0000 C   0  0
    1.3200    1.7700    0.0000 C   0  0
    1.3200    0.2800    0.0000 C   0  0
    0.0095   -0.4512    0.0000 N   0  0
   -1.2787    0.3172    0.0000 O   0  0
    2.6600   -0.5000    0.0000 C   0  0
    3.9706   -1.2297    0.0000 C   0  0
    1.3374   -1.2076    0.0000 C   0  0
    4.0000    0.2500    0.0000 C   0  0  2  0  0  0
    5.3400   -0.5000    0.0000 C   0  0
    6.6800    0.2800    0.0000 C   0  0
    6.6800    1.7700    0.0000 C   0  0  1  0  0  0
    7.5455    1.2691    0.0000 C   0  0
  1  2  1  0
  2  3  1  0
  2  4  1  0
  4  5  1  0
  6  5  1  6
  6  7  1  0
  7  8  1  0
  8  9  1  0
  9 10  1  6
  9 11  1  0
 11 12  1  1
 12 13  1  0
 13  6  1  0
 13 14  2  0
 11 15  1  0
 15  6  1  0
 15 16  1  6
 16  2  1  0
 11 17  1  0
 17 18  1  6
 17 19  1  0
 20 19  1  1
 20 21  1  0
 21 22  1  1
 21 23  1  0
 23 24  1  0
 24 25  1  0
 25 26  2  0
 26 27  1  0
 25 28  1  0
 28 29  1  0
 28 30  1  0
 28 31  1  0
 31 21  1  0
 31 32  1  1
 32 33  1  0
 33 34  1  0
 34 20  1  0
 34  9  1  0
 34 35  1  1
M  END
> <Smiles>
CC1(C)CC[C@@]23CC[C@]4(C)[C@@](OC2=O)([C@@H]3C1)[C@@H](Br)C[C@@H]1[C@@]2(C)CC/C(=N\O)C(C)(C)[C@@H]2CC[C@]14C

> <ID>
CHEMBL2237349

> <standard_value>
27542.29

> <IC50_uM>
27.54229

> <Activity>
No

> <pIC50>
4.559999953

> <BCI>
0

$$$$

  SciTegic03012415362D

 23 26  0  0  0  0            999 V2000
    2.6030   -2.9977    0.0000 C   0  0
    2.6003   -1.4977    0.0000 C   0  0
    3.8983   -0.7459    0.0000 O   0  0
    1.2990   -0.7500    0.0000 C   0  0
    1.2990    0.7500    0.0000 C   0  0
    0.0000    1.5000    0.0000 N   0  0
   -1.2990    0.7500    0.0000 C   0  0
   -2.7248    1.2135    0.0000 O   0  0
   -3.6065    0.0000    0.0000 C   0  0
   -5.0972   -0.1561    0.0000 C   0  0
   -5.7073   -1.5264    0.0000 C   0  0
   -4.8256   -2.7399    0.0000 C   0  0
   -5.4357   -4.1102    0.0000 O   0  0
   -3.3339   -2.5831    0.0000 C   0  0
   -2.7248   -1.2135    0.0000 C   0  0
   -1.2990   -0.7500    0.0000 C   0  0
    0.0000   -1.5000    0.0000 C   0  0
    0.0000   -3.0008    0.0000 C   0  0
   -1.2978   -3.7529    0.0000 C   0  0
   -1.2955   -5.2529    0.0000 C   0  0
    0.0048   -6.0009    0.0000 C   0  0
    1.3026   -5.2488    0.0000 C   0  0
    1.3002   -3.7488    0.0000 C   0  0
  1  2  1  0
  2  3  2  0
  2  4  1  0
  4  5  2  0
  5  6  1  0
  6  7  2  0
  7  8  1  0
  8  9  1  0
  9 10  2  0
 10 11  1  0
 11 12  2  0
 12 13  1  0
 12 14  1  0
 14 15  2  0
 15  9  1  0
 15 16  1  0
 16  7  1  0
 16 17  2  0
 17  4  1  0
 17 18  1  0
 18 19  2  0
 19 20  1  0
 20 21  2  0
 21 22  1  0
 22 23  2  0
 23 18  1  0
M  END
> <Smiles>
CC(=O)c1cnc2oc3ccc(O)cc3c2c1-c1ccccc1

> <ID>
CHEMBL133712

> <standard_value>
27700

> <IC50_uM>
27.7

> <Activity>
No

> <pIC50>
4.557520231

> <BCI>
0

$$$$

  SciTegic03012415362D

 71 78  0  0  1  0            999 V2000
    1.2561    8.2433    0.0000 C   0  0
    2.5587    7.4996    0.0000 C   0  0
    2.5670    5.9988    0.0000 C   0  0
    3.8704    5.2547    0.0000 C   0  0
    3.8787    3.7539    0.0000 O   0  0
    5.1821    3.0099    0.0000 C   0  0
    6.4772    3.7666    0.0000 O   0  0
    5.1903    1.5091    0.0000 C   0  0  1  0  0  0
    3.8939    0.7546    0.0000 O   0  0
    3.8990   -0.7455    0.0000 C   0  0  1  0  0  0
    2.6003   -1.4977    0.0000 O   0  0
    1.2990   -0.7500    0.0000 C   0  0  1  0  0  0
    1.2990    0.7500    0.0000 C   0  0
    0.0000    1.5000    0.0000 C   0  0
   -1.2990    0.7500    0.0000 C   0  0  2  0  0  0
   -1.2991    2.2500    0.0000 C   0  0
   -2.5981    1.5000    0.0000 C   0  0  1  0  0  0
   -2.5981    3.0000    0.0000 C   0  0
   -3.8972    3.7500    0.0000 C   0  0
   -5.1962    3.0000    0.0000 C   0  0
   -6.4952    3.7500    0.0000 C   0  0  2  0  0  0
   -6.4953    5.2500    0.0000 C   0  0
   -7.7943    5.9999    0.0000 C   0  0
   -6.4779    6.7191    0.0000 C   0  0
   -9.1106    6.7192    0.0000 C   0  0
   -9.0933    5.2499    0.0000 C   0  0
   -9.0933    3.7499    0.0000 C   0  0
   -7.7943    2.9999    0.0000 C   0  0  1  0  0  0
   -6.4945    2.2495    0.0000 C   0  0
   -6.4935    0.7495    0.0000 O   0  0
   -5.1957    3.0000    0.0000 O   0  0
   -7.7942    1.4999    0.0000 C   0  0
   -6.4952    0.7500    0.0000 C   0  0
   -5.1962    1.5000    0.0000 C   0  0  2  0  0  0
   -5.1962    0.0000    0.0000 C   0  0
   -3.8971    0.7500    0.0000 C   0  0  1  0  0  0
   -2.5981    0.0000    0.0000 C   0  0
   -3.8971   -0.7500    0.0000 C   0  0
   -2.5981   -1.5000    0.0000 C   0  0
   -1.2990   -0.7500    0.0000 C   0  0  1  0  0  0
    0.0000   -1.5000    0.0000 C   0  0
   -1.3164   -2.2191    0.0000 C   0  0
    1.3163   -2.2193    0.0000 C   0  0
    5.2007   -1.4909    0.0000 C   0  0  2  0  0  0
    5.2029   -2.9917    0.0000 O   0  0
    3.9047   -3.7448    0.0000 C   0  0  2  0  0  0
    2.6055   -2.9949    0.0000 O   0  0
    1.3065   -3.7450    0.0000 C   0  0  2  0  0  0
    0.0083   -2.9919    0.0000 C   0  0
   -1.2928   -3.7385    0.0000 O   0  0
    1.3066   -5.2450    0.0000 C   0  0  1  0  0  0
    0.0076   -5.9950    0.0000 O   0  0
    2.6056   -5.9949    0.0000 C   0  0  2  0  0  0
    2.6057   -7.4949    0.0000 O   0  0
    3.9046   -5.2449    0.0000 C   0  0  1  0  0  0
    5.2037   -5.9949    0.0000 O   0  0
    6.4972   -0.7364    0.0000 C   0  0  1  0  0  0
    7.7980   -1.4850    0.0000 O   0  0
    9.0971   -0.7336    0.0000 C   0  0  2  0  0  0
    9.0930    0.7665    0.0000 O   0  0
   10.3899    1.5201    0.0000 C   0  0  2  0  0  0
   10.3827    3.0209    0.0000 C   0  0
    9.0805    3.7654    0.0000 O   0  0
   11.6911    0.7737    0.0000 C   0  0  2  0  0  0
   12.9880    1.5273    0.0000 O   0  0
   11.6953   -0.7263    0.0000 C   0  0  2  0  0  0
   12.9964   -1.4726    0.0000 O   0  0
   10.3983   -1.4799    0.0000 C   0  0  1  0  0  0
   10.4026   -2.9799    0.0000 O   0  0
    6.4920    0.7636    0.0000 C   0  0  2  0  0  0
    7.7884    1.5180    0.0000 O   0  0
  1  2  1  0
  2  3  1  0
  3  4  1  0
  4  5  1  0
  5  6  1  0
  6  7  2  0
  8  6  1  6
  8  9  1  0
  9 10  1  0
 10 11  1  6
 12 11  1  6
 12 13  1  0
 13 14  1  0
 14 15  1  0
 15 16  1  6
 15 17  1  0
 17 18  1  6
 18 19  1  0
 19 20  2  0
 20 21  1  0
 21 22  1  1
 22 23  1  0
 23 24  1  0
 23 25  1  0
 23 26  1  0
 26 27  1  0
 27 28  1  0
 28 21  1  0
 28 29  1  6
 29 30  2  0
 29 31  1  0
 28 32  1  0
 32 33  1  0
 33 34  1  0
 34 20  1  0
 34 35  1  1
 34 36  1  0
 36 17  1  0
 36 37  1  6
 36 38  1  0
 38 39  1  0
 40 39  1  6
 40 15  1  0
 40 41  1  0
 41 12  1  0
 41 42  1  0
 41 43  1  0
 10 44  1  0
 44 45  1  1
 46 45  1  1
 46 47  1  0
 47 48  1  0
 48 49  1  1
 49 50  1  0
 48 51  1  0
 51 52  1  6
 51 53  1  0
 53 54  1  1
 53 55  1  0
 55 46  1  0
 55 56  1  6
 44 57  1  0
 57 58  1  6
 59 58  1  6
 59 60  1  0
 60 61  1  0
 61 62  1  6
 62 63  1  0
 61 64  1  0
 64 65  1  6
 64 66  1  0
 66 67  1  6
 66 68  1  0
 68 59  1  0
 68 69  1  1
 57 70  1  0
 70  8  1  0
 70 71  1  1
M  END
> <Smiles>
CCCCOC(=O)[C@H]1O[C@@H](O[C@H]2CC[C@]3(C)[C@H]4CC=C5[C@@H]6CC(C)(C)CC[C@]6(C(=O)O)CC[C@@]5(C)[C@]4(C)CC[C@H]3C2(C)C)[C@H](O[C@@H]2O[C@H](CO)[C@@H](O)[C@H](O)[C@H]2O)[C@@H](O[C@@H]2O[C@H](CO)[C@H](O)[C
@H](O)[C@H]2O)[C@@H]1O

> <ID>
CHEMBL510256

> <standard_value>
27700

> <IC50_uM>
27.7

> <Activity>
No

> <pIC50>
4.557520231

> <BCI>
0

$$$$

  SciTegic03012415362D

 37 41  0  0  0  0            999 V2000
   13.7821   -2.0732    0.0000 C   0  0
   14.5653   -0.7940    0.0000 O   0  0
   13.8495    0.5252    0.0000 C   0  0
   12.3499    0.5617    0.0000 C   0  0
   11.6349    1.8747    0.0000 C   0  0
   10.1416    2.0240    0.0000 C   0  0  3  0  0  0
    9.1436    0.9042    0.0000 C   0  0
    7.7891    1.5184    0.0000 C   0  0
    6.4920    0.7636    0.0000 C   0  0
    6.4972   -0.7364    0.0000 C   0  0
    5.2007   -1.4909    0.0000 C   0  0
    3.8990   -0.7455    0.0000 C   0  0
    2.6003   -1.4977    0.0000 N   0  0
    1.2990   -0.7500    0.0000 C   0  0
    1.2990    0.7500    0.0000 C   0  0
    0.0000    1.5000    0.0000 C   0  0
   -1.2990    0.7500    0.0000 N   0  0
   -1.2990   -0.7500    0.0000 C   0  0
   -2.5981   -1.5000    0.0000 C   0  0
   -2.5981   -3.0000    0.0000 C   0  0
   -3.8971   -3.7500    0.0000 Cl  0  0
   -1.2990   -3.7500    0.0000 C   0  0
    0.0000   -3.0000    0.0000 C   0  0
    0.0000   -1.5000    0.0000 C   0  0
    3.8939    0.7546    0.0000 C   0  0
    5.1903    1.5091    0.0000 C   0  0
    7.9195    3.0000    0.0000 N   0  0
    9.3851    3.3193    0.0000 N   0  0
    9.9847    4.6923    0.0000 C   0  0
    9.0952    5.9001    0.0000 O   0  0
   12.4132    3.1590    0.0000 C   0  0
   13.9128    3.1225    0.0000 C   0  0
   14.6920    4.4052    0.0000 O   0  0
   13.9719    5.7211    0.0000 C   0  0
   14.6309    1.8056    0.0000 C   0  0
   16.1312    1.7659    0.0000 O   0  0
   16.8475    0.4480    0.0000 C   0  0
  1  2  1  0
  2  3  1  0
  3  4  2  0
  4  5  1  0
  6  5  1  4
  6  7  1  0
  7  8  1  0
  8  9  1  0
  9 10  2  0
 10 11  1  0
 11 12  2  0
 12 13  1  0
 13 14  1  0
 14 15  2  0
 15 16  1  0
 16 17  2  0
 17 18  1  0
 18 19  2  0
 19 20  1  0
 20 21  1  0
 20 22  2  0
 22 23  1  0
 23 24  2  0
 24 14  1  0
 24 18  1  0
 12 25  1  0
 25 26  2  0
 26  9  1  0
  8 27  2  0
 27 28  1  0
 28  6  1  0
 28 29  1  0
 29 30  2  0
  5 31  2  0
 31 32  1  0
 32 33  1  0
 33 34  1  0
 32 35  2  0
 35  3  1  0
 35 36  1  0
 36 37  1  0
M  END
> <Smiles>
COc1cc(C2CC(c3ccc(Nc4ccnc5cc(Cl)ccc45)cc3)=NN2C=O)cc(OC)c1OC

> <ID>
CHEMBL2417852

> <standard_value>
28000

> <IC50_uM>
28

> <Activity>
No

> <pIC50>
4.552841969

> <BCI>
0

$$$$

  SciTegic03012415362D

 26 28  0  0  0  0            999 V2000
    2.5981   -1.5000    0.0000 C   0  0
    1.2990   -0.7500    0.0000 C   0  0
    1.2990    0.7500    0.0000 C   0  0
    2.5972    1.5031    0.0000 C   0  0
    3.8976    0.7554    0.0000 O   0  0
    2.5951    3.0039    0.0000 N   0  0
    3.8933    3.7570    0.0000 C   0  0
    3.8933    5.2571    0.0000 C   0  0
    5.1924    6.0071    0.0000 C   0  0
    6.4914    5.2571    0.0000 C   0  0
    7.7904    6.0072    0.0000 Cl  0  0
    6.4915    3.7571    0.0000 C   0  0
    7.7905    3.0072    0.0000 Cl  0  0
    5.1925    3.0071    0.0000 C   0  0
    0.0000    1.5000    0.0000 C   0  0  3  0  0  0
    0.0000    3.0008    0.0000 C   0  0
    1.3002    3.7488    0.0000 C   0  0
    1.3026    5.2488    0.0000 C   0  0
    0.0047    6.0009    0.0000 C   0  0
   -1.2955    5.2529    0.0000 C   0  0
   -1.2979    3.7529    0.0000 C   0  0
   -2.5981    3.0050    0.0000 O   0  0
   -1.2990    0.7500    0.0000 N   0  0
   -1.2990   -0.7500    0.0000 C   0  0
   -2.5981   -1.5000    0.0000 O   0  0
    0.0000   -1.5000    0.0000 N   0  0
  1  2  1  0
  2  3  2  0
  3  4  1  0
  4  5  2  0
  4  6  1  0
  6  7  1  0
  7  8  2  0
  8  9  1  0
  9 10  2  0
 10 11  1  0
 10 12  1  0
 12 13  1  0
 12 14  2  0
 14  7  1  0
  3 15  1  0
 15 16  1  4
 16 17  2  0
 17 18  1  0
 18 19  2  0
 19 20  1  0
 20 21  2  0
 21 16  1  0
 21 22  1  0
 15 23  1  0
 23 24  1  0
 24 25  2  0
 24 26  1  0
 26  2  1  0
M  END
> <Smiles>
CC1=C(C(=O)Nc2ccc(Cl)c(Cl)c2)C(c2ccccc2O)NC(=O)N1

> <ID>
CHEMBL2261271

> <standard_value>
28183.83

> <IC50_uM>
28.18383

> <Activity>
No

> <pIC50>
4.549999989

> <BCI>
0

$$$$

  SciTegic03012415362D

 20 23  0  0  0  0            999 V2000
    2.5981   -1.5000    0.0000 N   0  0
    1.2990   -0.7500    0.0000 N   0  0
    1.2990    0.7500    0.0000 C   0  0
    0.0000    1.5000    0.0000 C   0  0
   -1.2990    0.7500    0.0000 C   0  0
   -2.5981    1.5000    0.0000 C   0  0
   -3.8971    0.7500    0.0000 C   0  0
   -3.8971   -0.7500    0.0000 C   0  0
   -2.5981   -1.5000    0.0000 C   0  0
   -1.2990   -0.7500    0.0000 C   0  0
    0.0000   -1.5000    0.0000 C   0  0
    0.0000   -3.0000    0.0000 O   0  0
    0.3114    2.9665    0.0000 C   0  0
   -0.6924    4.0811    0.0000 O   0  0
    1.8032    3.1233    0.0000 C   0  0
    2.6837    4.3363    0.0000 C   0  0
    4.1755    4.1795    0.0000 C   0  0
    4.7856    2.8092    0.0000 C   0  0
    3.9040    1.5957    0.0000 C   0  0
    2.4133    1.7530    0.0000 C   0  0
  1  2  1  0
  2  3  1  0
  3  4  2  0
  4  5  1  0
  5  6  2  0
  6  7  1  0
  7  8  2  0
  8  9  1  0
  9 10  2  0
 10  5  1  0
 10 11  1  0
 11  2  1  0
 11 12  2  0
  4 13  1  0
 13 14  2  0
 13 15  1  0
 15 16  2  0
 16 17  1  0
 17 18  2  0
 18 19  1  0
 19 20  2  0
 20 15  1  0
 20  3  1  0
M  END
> <Smiles>
Nn1c2c(c3ccccc3c1=O)C(=O)c1ccccc1-2

> <ID>
CHEMBL225091

> <standard_value>
28200

> <IC50_uM>
28.2

> <Activity>
No

> <pIC50>
4.549750892

> <BCI>
0

$$$$

  SciTegic03012415362D

 22 23  0  0  0  0            999 V2000
    2.5951   -3.0031    0.0000 C   0  0
    2.5973   -1.5031    0.0000 O   0  0
    1.2990   -0.7500    0.0000 C   0  0
    1.2990    0.7500    0.0000 C   0  0
    0.0000    1.5000    0.0000 C   0  0
   -0.0031    3.0008    0.0000 C   0  0
   -1.3039    3.7494    0.0000 C   0  0
   -1.3070    5.2502    0.0000 C   0  0
   -2.6061    6.0003    0.0000 C   0  0
   -2.6061    7.5003    0.0000 C   0  0
   -1.3071    8.2503    0.0000 C   0  0
   -1.3071    9.7511    0.0000 S   0  0
   -0.0079   10.5008    0.0000 N   0  0
   -2.6057   10.5019    0.0000 O   0  0
   -1.3065   11.2511    0.0000 O   0  0
   -0.0080    7.5003    0.0000 C   0  0
   -0.0080    6.0003    0.0000 C   0  0
   -1.2990    0.7500    0.0000 C   0  0
   -1.2990   -0.7500    0.0000 C   0  0
   -2.5972   -1.5031    0.0000 O   0  0
   -2.5951   -3.0031    0.0000 C   0  0
    0.0000   -1.5000    0.0000 C   0  0
  1  2  1  0
  2  3  1  0
  3  4  2  0
  4  5  1  0
  5  6  1  0
  6  7  2  0
  7  8  1  0
  8  9  2  0
  9 10  1  0
 10 11  2  0
 11 12  1  0
 12 13  1  0
 12 14  2  0
 12 15  2  0
 11 16  1  0
 16 17  2  0
 17  8  1  0
  5 18  2  0
 18 19  1  0
 19 20  1  0
 20 21  1  0
 19 22  2  0
 22  3  1  0
M  END
> <Smiles>
COc1cc(/C=C/c2ccc(S(N)(=O)=O)cc2)cc(OC)c1

> <ID>
CHEMBL266405

> <standard_value>
28300

> <IC50_uM>
28.3

> <Activity>
No

> <pIC50>
4.548213564

> <BCI>
0

$$$$

  SciTegic03012415362D

 36 40  0  0  1  0            999 V2000
    9.1118    3.7156    0.0000 C   0  0
    8.1428    4.8606    0.0000 C   0  0
    6.6660    4.5933    0.0000 C   0  0
    6.1581    3.1810    0.0000 C   0  0  1  0  0  0
    7.1271    2.0360    0.0000 O   0  0
    4.6813    2.9137    0.0000 C   0  0
    4.1735    1.5014    0.0000 C   0  0  1  0  0  0
    5.1425    0.3564    0.0000 C   0  0
    2.7140    1.2135    0.0000 C   0  0  1  0  0  0
    2.0324    1.9452    0.0000 C   0  0
    3.5957    0.0000    0.0000 C   0  0
    2.7140   -1.2135    0.0000 C   0  0  1  0  0  0
    1.5943   -2.2200    0.0000 O   0  0
    1.2990   -0.7500    0.0000 C   0  0  2  0  0  0
    1.2990    0.7500    0.0000 C   0  0  1  0  0  0
    1.4024    1.7447    0.0000 C   0  0
    0.0000    1.5000    0.0000 C   0  0
   -1.2990    0.7500    0.0000 C   0  0
   -1.2990   -0.7500    0.0000 C   0  0
   -2.5981   -1.5000    0.0000 O   0  0
    0.0000   -1.5000    0.0000 C   0  0  1  0  0  0
   -0.5753   -2.9306    0.0000 C   0  0
    0.5394   -3.9343    0.0000 C   0  0
    1.8384   -3.1842    0.0000 C   0  0  1  0  0  0
    3.2635   -3.6377    0.0000 C   0  0
    2.1297   -4.6198    0.0000 C   0  0
    4.7026   -4.0610    0.0000 C   0  0
    4.3753   -2.6308    0.0000 C   0  0  2  0  0  0
    5.8032   -3.0902    0.0000 O   0  0
    4.0592   -1.1645    0.0000 C   0  0
    2.6313   -0.7051    0.0000 C   0  0
    1.5266   -1.7170    0.0000 C   0  0  2  0  0  0
    1.0830   -0.2841    0.0000 C   0  0
    8.6506    6.2729    0.0000 C   0  0
   10.1267    6.5400    0.0000 O   0  0
    7.6816    7.4179    0.0000 O   0  0
  1  2  1  0
  2  3  2  0
  3  4  1  0
  4  5  1  1
  4  6  1  0
  6  7  1  0
  7  8  1  1
  7  9  1  0
  9 10  1  6
  9 11  1  0
 12 11  1  1
 12 13  1  0
 14 13  1  6
 14 12  1  0
 14 15  1  0
 15  9  1  0
 15 16  1  1
 15 17  1  0
 17 18  1  0
 18 19  1  0
 19 20  2  0
 19 21  1  0
 21 14  1  0
 21 22  1  6
 22 23  1  0
 24 23  1  6
 24 25  1  0
 25 26  1  0
 25 27  1  0
 25 28  1  0
 28 29  1  1
 28 30  1  0
 30 31  1  0
 31 32  1  0
 32 24  1  0
 32 21  1  0
 32 33  1  6
  2 34  1  0
 34 35  2  0
 34 36  1  0
M  END
> <Smiles>
C/C(=C\[C@@H](O)C[C@@H](C)[C@@]1(C)C[C@H]2O[C@]23[C@]1(C)CCC(=O)[C@@]31CC[C@H]2C(C)(C)[C@H](O)CC[C@@]21C)C(=O)O

> <ID>
CHEMBL486815

> <standard_value>
28400

> <IC50_uM>
28.4

> <Activity>
No

> <pIC50>
4.54668166

> <BCI>
0

$$$$

  SciTegic03012415362D

 38 42  0  0  1  0            999 V2000
    5.1887   -6.0105    0.0000 C   0  0
    3.8912   -5.2578    0.0000 O   0  0
    3.8933   -3.7570    0.0000 C   0  0
    5.1937   -3.0093    0.0000 O   0  0
    2.5951   -3.0039    0.0000 C   0  0
    1.2948   -3.7516    0.0000 C   0  0
    2.5973   -1.5031    0.0000 C   0  0
    1.2990   -0.7500    0.0000 C   0  0  1  0  0  0
    1.2990    0.7500    0.0000 C   0  0
    0.0000    1.5000    0.0000 C   0  0  1  0  0  0
    0.0000    3.0000    0.0000 C   0  0
   -1.2990    0.7500    0.0000 C   0  0  2  0  0  0
   -1.3949    1.7454    0.0000 C   0  0
   -1.2990   -0.7500    0.0000 C   0  0  1  0  0  0
   -2.7272   -1.1906    0.0000 C   0  0
   -3.6011    0.0286    0.0000 C   0  0
   -5.0851    0.2054    0.0000 C   0  0
   -5.6815    1.5818    0.0000 C   0  0
   -4.7876    2.7864    0.0000 C   0  0
   -3.2975    2.6146    0.0000 C   0  0
   -2.7117    1.2364    0.0000 C   0  0  1  0  0  0
   -2.0299    1.9679    0.0000 C   0  0
   -7.1716    1.7535    0.0000 C   0  0  1  0  0  0
   -6.2778    2.9581    0.0000 C   0  0
   -7.7679    3.1299    0.0000 C   0  0
   -9.2581    3.3017    0.0000 C   0  0
  -10.1519    2.0970    0.0000 C   0  0  1  0  0  0
  -11.6425    2.2720    0.0000 O   0  0
  -12.2372    3.6500    0.0000 C   0  0
  -11.3413    4.8530    0.0000 C   0  0
  -13.7270    3.8248    0.0000 O   0  0
   -9.5556    0.7207    0.0000 C   0  0
   -8.9269   -0.6412    0.0000 C   0  0
  -11.0413    0.9274    0.0000 C   0  0
   -8.0654    0.5489    0.0000 C   0  0  2  0  0  0
   -7.4691   -0.8275    0.0000 C   0  0
   -5.9790   -0.9992    0.0000 C   0  0
    0.0000   -1.5000    0.0000 O   0  0
  1  2  1  0
  2  3  1  0
  3  4  2  0
  3  5  1  0
  5  6  1  0
  5  7  2  0
  8  7  1  6
  8  9  1  0
  9 10  1  0
 10 11  1  6
 10 12  1  0
 12 13  1  1
 12 14  1  0
 14 15  1  6
 15 16  2  0
 16 17  1  0
 17 18  2  0
 18 19  1  0
 19 20  1  0
 20 21  1  0
 21 16  1  0
 21 12  1  0
 21 22  1  6
 18 23  1  0
 23 24  1  1
 23 25  1  0
 25 26  1  0
 26 27  1  0
 27 28  1  6
 28 29  1  0
 29 30  1  0
 29 31  2  0
 27 32  1  0
 32 33  1  0
 32 34  1  0
 32 35  1  0
 35 23  1  0
 35 36  1  1
 36 37  1  0
 37 17  1  0
 14 38  1  0
 38  8  1  0
M  END
> <Smiles>
COC(=O)/C(C)=C/[C@H]1C[C@@H](C)[C@]2(C)[C@@H](C=C3C4=C(CC[C@]32C)[C@@]2(C)CC[C@@H](OC(C)=O)C(C)(C)[C@@H]2CC4)O1

> <ID>
CHEMBL487283

> <standard_value>
28600

> <IC50_uM>
28.6

> <Activity>
No

> <pIC50>
4.543633967

> <BCI>
0

$$$$

  SciTegic03012415362D

 26 30  0  0  0  0            999 V2000
    9.2504    1.7402    0.0000 C   0  0
    9.0000    3.2191    0.0000 C   0  0
   10.1555    4.1755    0.0000 C   0  0
   11.5614    3.6530    0.0000 C   0  0
   12.7221    4.6045    0.0000 C   0  0
   14.1255    4.0823    0.0000 C   0  0  3  0  0  0
   12.9701    2.7068    0.0000 C   0  0
   14.4190    3.1103    0.0000 C   0  0  3  0  0  0
   14.4190    4.6509    0.0000 C   0  0
   15.4277    5.8614    0.0000 C   0  0  3  0  0  0
   16.8033    5.2928    0.0000 C   0  0
   16.7849    3.8072    0.0000 C   0  0  3  0  0  0
   15.7945    2.5601    0.0000 C   0  0
   15.4094    3.4771    0.0000 C   0  0  3  0  0  0
   14.7566    2.1195    0.0000 N   0  0
   15.6021    0.8795    0.0000 C   0  0
   14.9518   -0.4731    0.0000 C   0  0
   15.7972   -1.7131    0.0000 C   0  0
   15.1469   -3.0657    0.0000 N   0  0
   15.8654   -4.3680    0.0000 C   0  0
   14.8272   -5.4507    0.0000 C   0  0
   13.4767   -4.7980    0.0000 N   0  0
   13.6801   -3.3118    0.0000 C   0  0
   14.1255    5.4029    0.0000 C   0  0
   11.8120    2.1739    0.0000 C   0  0
   10.6564    1.2176    0.0000 C   0  0
  1  2  2  0
  2  3  1  0
  3  4  2  0
  4  5  1  0
  6  5  1  4
  6  7  1  0
  8  7  1  4
  8  9  1  0
 10  9  1  4
 10 11  1  0
 12 11  1  4
 12 13  1  0
 13  8  1  0
 12 14  1  0
 14  6  1  0
 14 15  1  4
 15 16  1  0
 16 17  1  0
 17 18  1  0
 18 19  1  0
 19 20  1  0
 20 21  2  0
 21 22  1  0
 22 23  2  0
 23 19  1  0
 10 24  1  0
 24  6  1  0
  4 25  1  0
 25 26  2  0
 26  1  1  0
M  END
> <Smiles>
O=C(O)/C=C/C(=O)O.c1ccc(CC23CC4CC(CC(C4)C2NCCCn2ccnc2)C3)cc1

> <ID>
CHEMBL2430849

> <standard_value>
28780

> <IC50_uM>
28.78

> <Activity>
No

> <pIC50>
4.54090921

> <BCI>
0

$$$$

  SciTegic03012415362D

 24 26  0  0  0  0            999 V2000
    6.5017   -0.7634    0.0000 C   0  0
    5.2001   -1.5088    0.0000 O   0  0
    5.1939   -3.0097    0.0000 C   0  0
    6.4914   -3.7623    0.0000 C   0  0
    6.4883   -5.2623    0.0000 C   0  0
    5.1877   -6.0097    0.0000 C   0  0
    3.8902   -5.2570    0.0000 C   0  0
    3.8933   -3.7570    0.0000 C   0  0
    2.5951   -3.0039    0.0000 S   0  0
    1.2948   -3.7516    0.0000 O   0  0
    1.2973   -2.2519    0.0000 O   0  0
    2.5973   -1.5031    0.0000 N   0  0
    1.2990   -0.7500    0.0000 C   0  0
    1.2990    0.7500    0.0000 C   0  0
    0.0000    1.5000    0.0000 C   0  0
   -1.2990    0.7500    0.0000 C   0  0
   -1.2990   -0.7500    0.0000 C   0  0
    0.0000   -1.5000    0.0000 C   0  0
   -2.5981   -1.5000    0.0000 C   0  0
   -3.8971   -0.7500    0.0000 N   0  0
   -5.1961   -1.5000    0.0000 C   0  0
   -3.8971    0.7500    0.0000 C   0  0
   -5.1962    1.5000    0.0000 O   0  0
   -2.5981    1.5000    0.0000 N   0  0
  1  2  1  0
  2  3  1  0
  3  4  2  0
  4  5  1  0
  5  6  2  0
  6  7  1  0
  7  8  2  0
  8  3  1  0
  8  9  1  0
  9 10  2  0
  9 11  2  0
  9 12  1  0
 12 13  1  0
 13 14  2  0
 14 15  1  0
 15 16  2  0
 16 17  1  0
 17 18  2  0
 18 13  1  0
 17 19  1  0
 19 20  1  0
 20 21  1  0
 20 22  1  0
 22 23  2  0
 22 24  1  0
 24 16  1  0
M  END
> <Smiles>
COc1ccccc1S(=O)(=O)Nc1ccc2c(c1)CN(C)C(=O)N2

> <ID>
CHEMBL2179387

> <standard_value>
28800

> <IC50_uM>
28.8

> <Activity>
No

> <pIC50>
4.540607512

> <BCI>
0

$$$$

  SciTegic03012415362D

 30 34  0  0  1  0            999 V2000
    2.5228   -3.0436    0.0000 C   0  0
    1.2626   -2.2300    0.0000 C   0  0
    1.2990   -0.7500    0.0000 C   0  0  1  0  0  0
    2.5793    0.0316    0.0000 O   0  0
    1.2990    0.7500    0.0000 C   0  0
    2.5981    1.5000    0.0000 O   0  0
    0.0000    1.5000    0.0000 O   0  0
   -1.2990    0.7500    0.0000 C   0  0
   -1.2990   -0.7500    0.0000 C   0  0
    0.0000   -1.5000    0.0000 C   0  0
    0.0000   -3.0000    0.0000 C   0  0
   -1.2990   -3.7500    0.0000 C   0  0
   -2.5981   -3.0000    0.0000 N   0  0
   -2.5981   -1.5000    0.0000 C   0  0
   -3.8971   -0.7500    0.0000 O   0  0
   -3.7124   -4.0030    0.0000 C   0  0  3  0  0  0
   -5.1785   -3.6942    0.0000 C   0  0
   -6.1813   -4.8108    0.0000 C   0  0
   -5.7156   -6.2367    0.0000 N   0  0
   -7.6491   -4.5017    0.0000 O   0  0
   -3.1022   -5.3733    0.0000 C   0  0
   -3.7125   -6.7424    0.0000 C   0  0
   -2.8308   -7.9559    0.0000 C   0  0
   -3.4409   -9.3262    0.0000 C   0  0
   -2.5592  -10.5397    0.0000 C   0  0
   -1.0674  -10.3829    0.0000 C   0  0
   -0.4573   -9.0126    0.0000 C   0  0
   -1.3390   -7.7991    0.0000 C   0  0
   -0.7289   -6.4288    0.0000 N   0  0
   -1.6105   -5.2165    0.0000 C   0  0
  1  2  1  0
  2  3  1  0
  3  4  1  1
  3  5  1  0
  5  6  2  0
  5  7  1  0
  7  8  1  0
  8  9  1  0
  9 10  2  0
 10  3  1  0
 10 11  1  0
 11 12  2  0
 12 13  1  0
 13 14  1  0
 14  9  1  0
 14 15  2  0
 13 16  1  0
 16 17  1  4
 17 18  1  0
 18 19  1  0
 18 20  2  0
 16 21  1  0
 21 22  2  0
 22 23  1  0
 23 24  2  0
 24 25  1  0
 25 26  2  0
 26 27  1  0
 27 28  2  0
 28 23  1  0
 28 29  1  0
 29 30  2  0
 30 21  1  0
 30 12  1  0
M  END
> <Smiles>
CC[C@@]1(O)C(=O)OCc2c1cc1n(c2=O)C(CC(N)=O)c2cc3ccccc3nc2-1

> <ID>
CHEMBL297984

> <standard_value>
29000

> <IC50_uM>
29

> <Activity>
No

> <pIC50>
4.537602002

> <BCI>
0

$$$$

  SciTegic03012415362D

 27 28  0  0  1  0            999 V2000
    2.5228   -3.0436    0.0000 C   0  0
    1.2626   -2.2300    0.0000 C   0  0
    1.2990   -0.7500    0.0000 C   0  0  2  0  0  0
    2.5793    0.0316    0.0000 C   0  0
    1.2990    0.7500    0.0000 C   0  0
    0.0000    1.5000    0.0000 C   0  0  2  0  0  0
    0.0031    3.0008    0.0000 O   0  0
    1.3039    3.7494    0.0000 C   0  0
    2.6016    2.9971    0.0000 O   0  0
    1.3070    5.2502    0.0000 C   0  0
    0.0092    6.0025    0.0000 C   0  0
    2.6078    5.9988    0.0000 C   0  0  1  0  0  0
    3.9055    5.2465    0.0000 O   0  0
    2.6109    7.4996    0.0000 C   0  0
    3.9110    8.2478    0.0000 O   0  0
   -1.2990    0.7500    0.0000 C   0  0  1  0  0  0
   -2.7248    1.2135    0.0000 C   0  0
   -3.1882    2.6401    0.0000 C   0  0
   -3.6065    0.0000    0.0000 C   0  0
   -5.1065    0.0000    0.0000 O   0  0
   -2.7248   -1.2135    0.0000 O   0  0
   -1.2990   -0.7500    0.0000 C   0  0  2  0  0  0
    0.0000   -1.5000    0.0000 C   0  0  1  0  0  0
   -0.0031   -3.0008    0.0000 C   0  0
    1.2947   -3.7531    0.0000 C   0  0
   -1.3039   -3.7494    0.0000 C   0  0
   -1.3070   -5.2494    0.0000 O   0  0
  1  2  2  0
  2  3  1  0
  3  4  1  6
  3  5  1  0
  5  6  1  0
  6  7  1  1
  7  8  1  0
  8  9  2  0
  8 10  1  0
 10 11  2  0
 10 12  1  0
 12 13  1  6
 12 14  1  0
 14 15  1  0
  6 16  1  0
 16 17  1  6
 17 18  2  0
 17 19  1  0
 19 20  2  0
 19 21  1  0
 22 21  1  1
 22 16  1  0
 22 23  1  0
 23  3  1  0
 23 24  1  6
 24 25  2  0
 24 26  1  0
 26 27  1  0
M  END
> <Smiles>
C=C[C@]1(C)C[C@H](OC(=O)C(=C)[C@@H](O)CO)[C@H]2C(=C)C(=O)O[C@@H]2[C@H]1C(=C)CO

> <ID>
CHEMBL463085

> <standard_value>
29300

> <IC50_uM>
29.3

> <Activity>
No

> <pIC50>
4.53313238

> <BCI>
0

$$$$

  SciTegic03012415362D

 23 26  0  0  0  0            999 V2000
   -8.4376   -0.0088    0.0000 C   0  0
   -6.9671    0.2873    0.0000 N   0  0
   -6.4888    1.7090    0.0000 C   0  0
   -5.9741   -0.8381    0.0000 C   0  0
   -4.5029   -0.5417    0.0000 C   0  0
   -3.5099   -1.6671    0.0000 N   0  0
   -2.0541   -1.3755    0.0000 C   0  0  3  0  0  0
   -0.8987    0.0000    0.0000 C   0  0  3  0  0  0
    0.3852   -0.6052    0.0000 C   0  0
    1.7607   -0.2751    0.0000 C   0  0  3  0  0  0
    1.7790    1.2105    0.0000 C   0  0
    0.4035    1.7790    0.0000 C   0  0  3  0  0  0
   -0.8987    1.3205    0.0000 C   0  0
   -0.6052    0.5686    0.0000 C   0  0
   -0.6052   -0.9721    0.0000 C   0  0  3  0  0  0
    0.8654   -1.2815    0.0000 C   0  0
    1.3381   -2.7060    0.0000 C   0  0
    2.8057   -3.0154    0.0000 C   0  0
    3.2716   -4.4412    0.0000 C   0  0
    2.2697   -5.5576    0.0000 C   0  0
    0.8020   -5.2482    0.0000 C   0  0
    0.3361   -3.8224    0.0000 C   0  0
    0.7703   -1.5223    0.0000 C   0  0
  1  2  1  0
  2  3  1  0
  2  4  1  0
  4  5  1  0
  5  6  1  0
  7  6  1  4
  7  8  1  0
  8  9  1  4
 10  9  1  4
 10 11  1  0
 12 11  1  4
 12 13  1  0
 13  8  1  0
 12 14  1  0
 14 15  1  0
 15  7  1  0
 15 16  1  4
 16 17  1  0
 17 18  2  0
 18 19  1  0
 19 20  2  0
 20 21  1  0
 21 22  2  0
 22 17  1  0
 15 23  1  0
 23 10  1  0
M  END
> <Smiles>
CN(C)CCNC1C2CC3CC(C2)CC1(Cc1ccccc1)C3.O=C(O)/C=C/C(=O)O

> <ID>
CHEMBL2430844

> <standard_value>
29340

> <IC50_uM>
29.34

> <Activity>
No

> <pIC50>
4.53253989

> <BCI>
0

$$$$

  SciTegic03012415362D

 38 41  0  0  0  0            999 V2000
   11.6676  -18.7804    0.0000 C   0  0
   11.6698  -17.2804    0.0000 C   0  0
   12.9701  -16.5327    0.0000 C   0  0
   12.9676  -18.0325    0.0000 C   0  0
   10.3716  -16.5273    0.0000 O   0  0
   10.3737  -15.0265    0.0000 C   0  0
   11.6740  -14.2788    0.0000 O   0  0
    9.0755  -14.2734    0.0000 N   0  0
    9.0776  -12.7726    0.0000 C   0  0
    7.7794  -12.0195    0.0000 C   0  0
    7.7815  -10.5187    0.0000 C   0  0
    6.4833   -9.7656    0.0000 C   0  0
    6.4855   -8.2648    0.0000 C   0  0
    5.1873   -7.5117    0.0000 C   0  0
    5.1894   -6.0109    0.0000 C   0  0
    3.8912   -5.2578    0.0000 C   0  0
    3.8933   -3.7570    0.0000 C   0  0
    2.5951   -3.0039    0.0000 C   0  0
    2.5973   -1.5031    0.0000 C   0  0
    1.2990   -0.7500    0.0000 N   0  0
    1.2990    0.7500    0.0000 C   0  0
    0.0000    1.5000    0.0000 C   0  0
   -1.2990    0.7500    0.0000 C   0  0
   -2.5981    1.5000    0.0000 C   0  0
   -3.8971    0.7500    0.0000 C   0  0
   -3.8971   -0.7500    0.0000 C   0  0
   -2.5981   -1.5000    0.0000 C   0  0
   -1.2990   -0.7500    0.0000 C   0  0
    0.0000   -1.5000    0.0000 C   0  0
    0.0000   -3.0000    0.0000 O   0  0
    0.3114    2.9665    0.0000 C   0  0
   -0.6924    4.0811    0.0000 O   0  0
    1.8032    3.1233    0.0000 C   0  0
    2.6837    4.3363    0.0000 C   0  0
    4.1755    4.1795    0.0000 C   0  0
    4.7856    2.8092    0.0000 C   0  0
    3.9040    1.5957    0.0000 C   0  0
    2.4133    1.7530    0.0000 C   0  0
  1  2  1  0
  2  3  1  0
  2  4  1  0
  2  5  1  0
  5  6  1  0
  6  7  2  0
  6  8  1  0
  8  9  1  0
  9 10  1  0
 10 11  1  0
 11 12  1  0
 12 13  1  0
 13 14  1  0
 14 15  1  0
 15 16  1  0
 16 17  1  0
 17 18  1  0
 18 19  1  0
 19 20  1  0
 20 21  1  0
 21 22  2  0
 22 23  1  0
 23 24  2  0
 24 25  1  0
 25 26  2  0
 26 27  1  0
 27 28  2  0
 28 23  1  0
 28 29  1  0
 29 20  1  0
 29 30  2  0
 22 31  1  0
 31 32  2  0
 31 33  1  0
 33 34  2  0
 34 35  1  0
 35 36  2  0
 36 37  1  0
 37 38  2  0
 38 33  1  0
 38 21  1  0
M  END
> <Smiles>
CC(C)(C)OC(=O)NCCCCCCCCCCCn1c2c(c3ccccc3c1=O)C(=O)c1ccccc1-2

> <ID>
CHEMBL224217

> <standard_value>
29500

> <IC50_uM>
29.5

> <Activity>
No

> <pIC50>
4.530177984

> <BCI>
0

$$$$

  SciTegic03012415362D

 18 20  0  0  0  0            999 V2000
    2.5981   -1.5000    0.0000 O   0  0
    1.2990   -0.7500    0.0000 C   0  0
    1.2990    0.7500    0.0000 C   0  0
    0.0000    1.5000    0.0000 C   0  0
    0.0000    3.0008    0.0000 C   0  0
    1.2978    3.7529    0.0000 C   0  0
    1.2954    5.2529    0.0000 C   0  0
   -0.0048    6.0009    0.0000 C   0  0
   -1.3026    5.2488    0.0000 C   0  0
   -1.3002    3.7488    0.0000 N   0  0
   -1.2990    0.7500    0.0000 N   0  0
   -1.2990   -0.7500    0.0000 C   0  0
   -2.5981   -1.5000    0.0000 C   0  0
   -2.5981   -3.0000    0.0000 C   0  0
   -3.8971   -3.7500    0.0000 F   0  0
   -1.2990   -3.7500    0.0000 C   0  0
    0.0000   -3.0000    0.0000 C   0  0
    0.0000   -1.5000    0.0000 C   0  0
  1  2  1  0
  2  3  2  0
  3  4  1  0
  4  5  1  0
  5  6  2  0
  6  7  1  0
  7  8  2  0
  8  9  1  0
  9 10  2  0
 10  5  1  0
  4 11  2  0
 11 12  1  0
 12 13  2  0
 13 14  1  0
 14 15  1  0
 14 16  2  0
 16 17  1  0
 17 18  2  0
 18  2  1  0
 18 12  1  0
M  END
> <Smiles>
Oc1cc(-c2ccccn2)nc2cc(F)ccc12

> <ID>
CHEMBL14114

> <standard_value>
29512.09

> <IC50_uM>
29.51209

> <Activity>
No

> <pIC50>
4.530000033

> <BCI>
0

$$$$

  SciTegic03012415362D

 18 18  0  0  0  0            999 V2000
   -0.4763   -3.7706    0.0000 O   0  0
    1.0157   -3.6164    0.0000 C   0  0
    1.6281   -2.2462    0.0000 N   0  0
    0.7500   -1.0323    0.0000 C   0  0
    1.2135    0.3943    0.0000 N   0  0
    0.0000    1.2760    0.0000 C   0  0
   -1.2135    0.3943    0.0000 C   0  0
   -0.7500   -1.0323    0.0000 S   0  0
    1.8954   -4.8324    0.0000 N   0  0
    1.2830   -6.2026    0.0000 C   0  0
    2.1626   -7.4186    0.0000 C   0  0
    1.5505   -8.7881    0.0000 F   0  0
    3.0423   -8.6336    0.0000 F   0  0
    3.6547   -7.2645    0.0000 F   0  0
   -0.2102   -6.3538    0.0000 C   0  0
   -1.0881   -5.1375    0.0000 F   0  0
   -1.7025   -6.5056    0.0000 F   0  0
   -0.8251   -7.7220    0.0000 F   0  0
  1  2  2  0
  2  3  1  0
  3  4  1  0
  4  5  2  0
  5  6  1  0
  6  7  2  0
  7  8  1  0
  8  4  1  0
  2  9  1  0
  9 10  1  0
 10 11  1  0
 11 12  1  0
 11 13  1  0
 11 14  1  0
 10 15  1  0
 15 16  1  0
 15 17  1  0
 15 18  1  0
M  END
> <Smiles>
O=C(Nc1nccs1)NC(C(F)(F)F)C(F)(F)F

> <ID>
CHEMBL574350

> <standard_value>
29512.09

> <IC50_uM>
29.51209

> <Activity>
No

> <pIC50>
4.530000033

> <BCI>
0

$$$$

  SciTegic03012415362D

 25 28  0  0  0  0            999 V2000
    6.4983   -0.7414    0.0000 C   0  0
    5.2003   -1.4932    0.0000 C   0  0
    3.8990   -0.7455    0.0000 O   0  0
    2.6003   -1.4977    0.0000 C   0  0
    2.6030   -2.9977    0.0000 O   0  0
    1.2990   -0.7500    0.0000 C   0  0
    1.2990    0.7500    0.0000 C   0  0
    0.0000    1.5000    0.0000 N   0  0
   -1.2990    0.7500    0.0000 C   0  0
   -2.7248    1.2135    0.0000 O   0  0
   -3.6065    0.0000    0.0000 C   0  0
   -5.0972   -0.1561    0.0000 C   0  0
   -5.7073   -1.5264    0.0000 C   0  0
   -4.8256   -2.7399    0.0000 C   0  0
   -5.4357   -4.1102    0.0000 O   0  0
   -3.3339   -2.5831    0.0000 C   0  0
   -2.7248   -1.2135    0.0000 C   0  0
   -1.2990   -0.7500    0.0000 C   0  0
    0.0000   -1.5000    0.0000 C   0  0
    0.0000   -3.0008    0.0000 C   0  0
   -1.2978   -3.7529    0.0000 C   0  0
   -1.2955   -5.2529    0.0000 C   0  0
    0.0048   -6.0009    0.0000 C   0  0
    1.3026   -5.2488    0.0000 C   0  0
    1.3002   -3.7488    0.0000 C   0  0
  1  2  1  0
  2  3  1  0
  3  4  1  0
  4  5  2  0
  4  6  1  0
  6  7  2  0
  7  8  1  0
  8  9  2  0
  9 10  1  0
 10 11  1  0
 11 12  2  0
 12 13  1  0
 13 14  2  0
 14 15  1  0
 14 16  1  0
 16 17  2  0
 17 11  1  0
 17 18  1  0
 18  9  1  0
 18 19  2  0
 19  6  1  0
 19 20  1  0
 20 21  2  0
 21 22  1  0
 22 23  2  0
 23 24  1  0
 24 25  2  0
 25 20  1  0
M  END
> <Smiles>
CCOC(=O)c1cnc2oc3ccc(O)cc3c2c1-c1ccccc1

> <ID>
CHEMBL132904

> <standard_value>
29700

> <IC50_uM>
29.7

> <Activity>
No

> <pIC50>
4.527243551

> <BCI>
0

$$$$

  SciTegic03012415362D

 35 39  0  0  1  0            999 V2000
    5.1887   -6.0105    0.0000 C   0  0
    3.8912   -5.2578    0.0000 O   0  0
    3.8933   -3.7570    0.0000 C   0  0
    5.1937   -3.0093    0.0000 O   0  0
    2.5951   -3.0039    0.0000 C   0  0
    1.2948   -3.7516    0.0000 C   0  0
    2.5973   -1.5031    0.0000 C   0  0
    1.2990   -0.7500    0.0000 C   0  0  1  0  0  0
    1.2990    0.7500    0.0000 C   0  0
    0.0000    1.5000    0.0000 C   0  0  1  0  0  0
    0.0000    3.0000    0.0000 C   0  0
   -1.2990    0.7500    0.0000 C   0  0  2  0  0  0
   -1.3949    1.7454    0.0000 C   0  0
   -1.2990   -0.7500    0.0000 C   0  0  1  0  0  0
   -2.7272   -1.1906    0.0000 C   0  0
   -3.6011    0.0286    0.0000 C   0  0
   -5.0851    0.2054    0.0000 C   0  0
   -5.6815    1.5818    0.0000 C   0  0
   -4.7876    2.7864    0.0000 C   0  0
   -3.2975    2.6146    0.0000 C   0  0
   -2.7117    1.2364    0.0000 C   0  0  1  0  0  0
   -2.0299    1.9679    0.0000 C   0  0
   -7.1716    1.7535    0.0000 C   0  0  1  0  0  0
   -6.2778    2.9581    0.0000 C   0  0
   -7.7679    3.1299    0.0000 C   0  0
   -9.2581    3.3017    0.0000 C   0  0
  -10.1519    2.0970    0.0000 C   0  0  1  0  0  0
  -11.6420    2.2688    0.0000 O   0  0
   -9.5556    0.7207    0.0000 C   0  0
   -8.9269   -0.6412    0.0000 C   0  0
  -11.0413    0.9274    0.0000 C   0  0
   -8.0654    0.5489    0.0000 C   0  0  2  0  0  0
   -7.4691   -0.8275    0.0000 C   0  0
   -5.9790   -0.9992    0.0000 C   0  0
    0.0000   -1.5000    0.0000 O   0  0
  1  2  1  0
  2  3  1  0
  3  4  2  0
  3  5  1  0
  5  6  1  0
  5  7  2  0
  8  7  1  6
  8  9  1  0
  9 10  1  0
 10 11  1  6
 10 12  1  0
 12 13  1  1
 12 14  1  0
 14 15  1  6
 15 16  2  0
 16 17  1  0
 17 18  2  0
 18 19  1  0
 19 20  1  0
 20 21  1  0
 21 16  1  0
 21 12  1  0
 21 22  1  6
 18 23  1  0
 23 24  1  1
 23 25  1  0
 25 26  1  0
 26 27  1  0
 27 28  1  6
 27 29  1  0
 29 30  1  0
 29 31  1  0
 29 32  1  0
 32 23  1  0
 32 33  1  1
 33 34  1  0
 34 17  1  0
 14 35  1  0
 35  8  1  0
M  END
> <Smiles>
COC(=O)/C(C)=C/[C@H]1C[C@@H](C)[C@]2(C)[C@@H](C=C3C4=C(CC[C@]32C)[C@@]2(C)CC[C@@H](O)C(C)(C)[C@@H]2CC4)O1

> <ID>
CHEMBL484026

> <standard_value>
29700

> <IC50_uM>
29.7

> <Activity>
No

> <pIC50>
4.527243551

> <BCI>
0

$$$$

  SciTegic03012415362D

 23 25  0  0  0  0            999 V2000
    2.5981   -1.5000    0.0000 O   0  0
    1.2990   -0.7500    0.0000 C   0  0
    1.2990    0.7500    0.0000 C   0  0
    2.5981    1.5000    0.0000 C   0  0
    2.5981    3.0000    0.0000 C   0  0
    1.2990    3.7500    0.0000 C   0  0
    0.0000    3.0000    0.0000 C   0  0
    0.0000    1.5000    0.0000 C   0  0
   -1.2990    0.7500    0.0000 O   0  0
   -1.2990   -0.7500    0.0000 C   0  0
   -2.5981   -1.5000    0.0000 C   0  0
   -2.5981   -3.0000    0.0000 C   0  0
   -1.2990   -3.7500    0.0000 C   0  0
    0.0000   -3.0000    0.0000 C   0  0
    1.2982   -3.7531    0.0000 O   0  0
    1.2961   -5.2539    0.0000 C   0  0
    2.5943   -6.0070    0.0000 C   0  0
    2.5922   -7.5078    0.0000 C   0  0
    3.8904   -8.2609    0.0000 C   0  0
    3.8883   -9.7617    0.0000 C   0  0
    5.1865  -10.5148    0.0000 C   0  0
    5.1843  -12.0148    0.0000 Br  0  0
    0.0000   -1.5000    0.0000 C   0  0
  1  2  2  0
  2  3  1  0
  3  4  2  0
  4  5  1  0
  5  6  2  0
  6  7  1  0
  7  8  2  0
  8  3  1  0
  8  9  1  0
  9 10  1  0
 10 11  2  0
 11 12  1  0
 12 13  2  0
 13 14  1  0
 14 15  1  0
 15 16  1  0
 16 17  1  0
 17 18  1  0
 18 19  1  0
 19 20  1  0
 20 21  1  0
 21 22  1  0
 14 23  2  0
 23  2  1  0
 23 10  1  0
M  END
> <Smiles>
O=c1c2ccccc2oc2cccc(OCCCCCCBr)c12

> <ID>
CHEMBL1077127

> <standard_value>
30200

> <IC50_uM>
30.2

> <Activity>
No

> <pIC50>
4.519993057

> <BCI>
0

$$$$

  SciTegic03012415362D

 37 40  0  0  1  0            999 V2000
    3.8964    0.7545    0.0000 C   0  0
    3.8990   -0.7455    0.0000 C   0  0
    5.1996   -1.4928    0.0000 O   0  0
    2.6003   -1.4977    0.0000 O   0  0
    1.2990   -0.7500    0.0000 C   0  0  1  0  0  0
    1.2990    0.7500    0.0000 C   0  0
    0.0000    1.5000    0.0000 C   0  0
   -1.2990    0.7500    0.0000 C   0  0  2  0  0  0
   -1.2991    2.2500    0.0000 C   0  0
   -2.5981    1.5000    0.0000 C   0  0
   -2.5981    3.0000    0.0000 C   0  0
   -3.8972    3.7500    0.0000 C   0  0
   -5.1962    3.0000    0.0000 C   0  0  2  0  0  0
   -5.3512    4.4919    0.0000 C   0  0
   -6.6112    3.4635    0.0000 C   0  0
   -7.0722    4.8891    0.0000 C   0  0  2  0  0  0
   -8.5391    5.2025    0.0000 C   0  0
   -6.0671    6.0036    0.0000 C   0  0
   -6.5289    7.4316    0.0000 C   0  0
   -7.9958    7.7451    0.0000 O   0  0
   -5.5238    8.5462    0.0000 C   0  0
   -5.9856    9.9742    0.0000 C   0  0  2  0  0  0
   -7.4525   10.2877    0.0000 C   0  0
   -4.9805   11.0888    0.0000 C   0  0
   -5.4420   12.5160    0.0000 O   0  0
   -3.5136   10.7753    0.0000 O   0  0
   -7.4928    2.2499    0.0000 C   0  0
   -6.6112    1.0364    0.0000 C   0  0
   -5.1962    1.5000    0.0000 C   0  0  2  0  0  0
   -5.3512    0.0080    0.0000 C   0  0
   -3.8971    0.7500    0.0000 C   0  0  2  0  0  0
   -3.8971   -0.7500    0.0000 C   0  0
   -2.5981   -1.5000    0.0000 C   0  0
   -1.2990   -0.7500    0.0000 C   0  0  1  0  0  0
    0.0000   -1.5000    0.0000 C   0  0
   -1.3164   -2.2191    0.0000 C   0  0
    1.3163   -2.2193    0.0000 C   0  0
  1  2  1  0
  2  3  2  0
  2  4  1  0
  5  4  1  6
  5  6  1  0
  6  7  1  0
  7  8  1  0
  8  9  1  6
  8 10  1  0
 10 11  2  0
 11 12  1  0
 12 13  1  0
 13 14  1  6
 13 15  1  0
 15 16  1  0
 16 17  1  6
 16 18  1  0
 18 19  1  0
 19 20  2  0
 19 21  1  0
 21 22  1  0
 22 23  1  6
 22 24  1  0
 24 25  2  0
 24 26  1  0
 15 27  2  0
 27 28  1  0
 28 29  1  0
 29 13  1  0
 29 30  1  1
 29 31  1  0
 31 10  1  0
 31 32  1  1
 32 33  1  0
 34 33  1  6
 34  8  1  0
 34 35  1  0
 35  5  1  0
 35 36  1  0
 35 37  1  0
M  END
> <Smiles>
CC(=O)O[C@H]1CC[C@]2(C)C3=CC[C@]4(C)C([C@H](C)CC(=O)C[C@H](C)C(=O)O)=CC[C@@]4(C)[C@@H]3CC[C@H]2C1(C)C

> <ID>
CHEMBL486206

> <standard_value>
30600

> <IC50_uM>
30.6

> <Activity>
No

> <pIC50>
4.514278574

> <BCI>
0

$$$$

  SciTegic03012415362D

 37 41  0  0  1  0            999 V2000
    7.7919   -3.0132    0.0000 C   0  0
    7.7969   -1.5132    0.0000 C   0  0
    9.0986   -0.7679    0.0000 O   0  0
    6.4994   -0.7589    0.0000 O   0  0
    5.1969   -1.5045    0.0000 C   0  0  2  0  0  0
    3.8991   -0.7525    0.0000 C   0  0  1  0  0  0
    3.9046    0.7483    0.0000 O   0  0
    5.2066    1.4948    0.0000 C   0  0
    6.5031    0.7404    0.0000 C   0  0
    5.2121    2.9948    0.0000 O   0  0
    2.5987   -1.5004    0.0000 C   0  0  1  0  0  0
    1.2990   -0.7500    0.0000 N   0  0
    1.2990    0.7500    0.0000 C   0  0
    0.0000    1.5000    0.0000 C   0  0
   -1.2990    0.7500    0.0000 C   0  0
   -1.2990   -0.7500    0.0000 C   0  0
   -2.5981   -1.5000    0.0000 C   0  0
   -2.5981   -3.0000    0.0000 C   0  0
   -3.8971   -0.7500    0.0000 C   0  0
   -3.8971    0.7500    0.0000 C   0  0
   -5.3229    1.2135    0.0000 N   0  0
   -6.2045    0.0000    0.0000 C   0  0
   -7.6953   -0.1561    0.0000 C   0  0
   -8.3054   -1.5264    0.0000 C   0  0
   -7.4237   -2.7399    0.0000 C   0  0
   -5.9319   -2.5831    0.0000 C   0  0
   -5.3229   -1.2135    0.0000 C   0  0
   -2.5981    1.5000    0.0000 C   0  0
   -2.5981    3.0000    0.0000 C   0  0
    0.0000   -1.5000    0.0000 C   0  0
    2.5965   -3.0004    0.0000 O   0  0
    3.8943   -3.7525    0.0000 C   0  0
    5.1945   -3.0045    0.0000 C   0  0  2  0  0  0
    6.4915   -3.7597    0.0000 O   0  0
    6.4870   -5.2605    0.0000 C   0  0
    5.1855   -6.0062    0.0000 C   0  0
    7.7833   -6.0152    0.0000 O   0  0
  1  2  1  0
  2  3  2  0
  2  4  1  0
  5  4  1  1
  5  6  1  0
  6  7  1  6
  7  8  1  0
  8  9  1  0
  8 10  2  0
  6 11  1  0
 11 12  1  6
 12 13  1  0
 13 14  2  0
 14 15  1  0
 15 16  2  0
 16 17  1  0
 17 18  1  0
 17 19  2  0
 19 20  1  0
 20 21  1  0
 21 22  1  0
 22 23  2  0
 23 24  1  0
 24 25  2  0
 25 26  1  0
 26 27  2  0
 27 22  1  0
 27 19  1  0
 20 28  2  0
 28 15  1  0
 28 29  1  0
 16 30  1  0
 30 12  1  0
 11 31  1  0
 31 32  1  0
 32 33  1  0
 33  5  1  0
 33 34  1  1
 34 35  1  0
 35 36  1  0
 35 37  2  0
M  END
> <Smiles>
CC(=O)O[C@@H]1[C@@H](OC(C)=O)[C@@H](N2C=Cc3c(c(C)c4c([nH]c5ccccc54)c3C)C2)OC[C@@H]1OC(C)=O

> <ID>
CHEMBL68901

> <standard_value>
31000

> <IC50_uM>
31

> <Activity>
No

> <pIC50>
4.508638306

> <BCI>
0

$$$$

  SciTegic03012415362D

 25 27  0  0  0  0            999 V2000
   -0.0063   -4.4998    0.0000 N   0  0
    1.2941   -3.7521    0.0000 C   0  0
    2.5951   -3.0039    0.0000 C   0  0
    3.8933   -3.7570    0.0000 C   0  0
    3.8912   -5.2578    0.0000 N   0  0
    2.6747   -6.1134    0.0000 C   0  0
    3.1332   -7.5416    0.0000 C   0  0
    4.6332   -7.5468    0.0000 N   0  0
    5.5071   -8.7638    0.0000 C   0  0
    6.9997   -8.6148    0.0000 O   0  0
    4.8900  -10.1319    0.0000 C   0  0
    5.6399  -11.4162    0.0000 C   0  0
    4.6285  -12.5239    0.0000 C   0  0
    3.2624  -11.9042    0.0000 C   0  0
    3.4296  -10.4136    0.0000 O   0  0
    5.1017   -6.1218    0.0000 C   0  0
    6.5271   -5.6548    0.0000 S   0  0
    2.5973   -1.5031    0.0000 C   0  0
    3.8976   -0.7553    0.0000 O   0  0
    1.2990   -0.7500    0.0000 C   0  0
    1.2990    0.7500    0.0000 C   0  0
    0.0000    1.5000    0.0000 C   0  0
   -1.2990    0.7500    0.0000 C   0  0
   -1.2990   -0.7500    0.0000 C   0  0
    0.0000   -1.5000    0.0000 C   0  0
  1  2  3  0
  2  3  1  0
  3  4  2  0
  4  5  1  0
  5  6  1  0
  6  7  1  0
  7  8  1  0
  8  9  1  0
  9 10  2  0
  9 11  1  0
 11 12  2  0
 12 13  1  0
 13 14  2  0
 14 15  1  0
 15 11  1  0
  8 16  1  0
 16  5  1  0
 16 17  2  0
  3 18  1  0
 18 19  2  0
 18 20  1  0
 20 21  2  0
 21 22  1  0
 22 23  2  0
 23 24  1  0
 24 25  2  0
 25 20  1  0
M  END
> <Smiles>
N#C/C(=C\N1CCN(C(=O)c2ccco2)C1=S)C(=O)c1ccccc1

> <ID>
CHEMBL472420

> <standard_value>
31200

> <IC50_uM>
31.2

> <Activity>
No

> <pIC50>
4.505845406

> <BCI>
0

$$$$

  SciTegic03012415362D

 19 20  0  0  0  0            999 V2000
    2.5983   -3.0004    0.0000 N   0  0
    2.5988   -1.5004    0.0000 S   0  0
    3.8983   -0.7512    0.0000 O   0  0
    3.8975   -2.2510    0.0000 O   0  0
    1.2990   -0.7500    0.0000 C   0  0
    1.2990    0.7500    0.0000 C   0  0
    0.0000    1.5000    0.0000 C   0  0
   -1.2990    0.7500    0.0000 C   0  0
   -2.6003    1.4977    0.0000 C   0  0
   -3.8990    0.7455    0.0000 C   0  0
   -5.2003    1.4932    0.0000 C   0  0
   -6.4994    0.7432    0.0000 C   0  0
   -7.7985    1.4932    0.0000 C   0  0
   -7.7985    2.9932    0.0000 C   0  0
   -9.0976    3.7432    0.0000 O   0  0
   -6.4995    3.7432    0.0000 C   0  0
   -5.2004    2.9933    0.0000 C   0  0
   -1.2990   -0.7500    0.0000 C   0  0
    0.0000   -1.5000    0.0000 C   0  0
  1  2  1  0
  2  3  2  0
  2  4  2  0
  2  5  1  0
  5  6  2  0
  6  7  1  0
  7  8  2  0
  8  9  1  0
  9 10  2  0
 10 11  1  0
 11 12  2  0
 12 13  1  0
 13 14  2  0
 14 15  1  0
 14 16  1  0
 16 17  2  0
 17 11  1  0
  8 18  1  0
 18 19  2  0
 19  5  1  0
M  END
> <Smiles>
NS(=O)(=O)c1ccc(/C=C/c2ccc(O)cc2)cc1

> <ID>
CHEMBL7499

> <standard_value>
31500

> <IC50_uM>
31.5

> <Activity>
No

> <pIC50>
4.501689446

> <BCI>
0

$$$$

  SciTegic03012415362D

 23 26  0  0  0  0            999 V2000
    2.5981   -1.5000    0.0000 C   0  0
    1.2990   -0.7500    0.0000 C   0  0
    1.2990    0.7500    0.0000 N   0  0
    0.0000    1.5000    0.0000 C   0  0
    0.0000    3.0000    0.0000 C   0  0
   -1.2991    3.7500    0.0000 C   0  0
   -2.5981    3.0000    0.0000 C   0  0
   -2.5981    1.5000    0.0000 C   0  0
   -1.2990    0.7500    0.0000 C   0  0
   -1.2990   -0.7500    0.0000 C   0  0
   -2.5981   -1.5000    0.0000 O   0  0
    0.0000   -1.5000    0.0000 N   0  0
    0.0031   -3.0008    0.0000 N   0  0
    1.3039   -3.7494    0.0000 C   0  0
    1.3070   -5.2502    0.0000 C   0  0
    2.5205   -6.1100    0.0000 N   0  0
    2.0570   -7.5358    0.0000 C   0  0
    2.8070   -8.8348    0.0000 C   0  0
    2.0570  -10.1338    0.0000 C   0  0
    0.5570  -10.1339    0.0000 C   0  0
   -0.1930   -8.8348    0.0000 C   0  0
    0.5570   -7.5358    0.0000 C   0  0
    0.0935   -6.1100    0.0000 N   0  0
  1  2  1  0
  2  3  2  0
  3  4  1  0
  4  5  2  0
  5  6  1  0
  6  7  2  0
  7  8  1  0
  8  9  2  0
  9  4  1  0
  9 10  1  0
 10 11  2  0
 10 12  1  0
 12  2  1  0
 12 13  1  0
 13 14  1  0
 14 15  1  0
 15 16  2  0
 16 17  1  0
 17 18  2  0
 18 19  1  0
 19 20  2  0
 20 21  1  0
 21 22  2  0
 22 17  1  0
 22 23  1  0
 23 15  1  0
M  END
> <Smiles>
Cc1nc2ccccc2c(=O)n1NCc1nc2ccccc2[nH]1

> <ID>
CHEMBL2297617

> <standard_value>
31500

> <IC50_uM>
31.5

> <Activity>
No

> <pIC50>
4.501689446

> <BCI>
0

$$$$

  SciTegic03012415362D

 26 29  0  0  1  0            999 V2000
    2.5981   -1.5000    0.0000 C   0  0
    1.2990   -0.7500    0.0000 C   0  0
    1.2990    0.7500    0.0000 C   0  0
    0.0000    1.5000    0.0000 C   0  0
   -1.2990    0.7500    0.0000 C   0  0
   -1.2990   -0.7500    0.0000 C   0  0  1  0  0  0
   -2.1405   -2.0490    0.0000 O   0  0
   -3.6405   -2.0490    0.0000 C   0  0
   -4.3905   -0.7500    0.0000 C   0  0
   -3.6405    0.5490    0.0000 C   0  0
   -2.1405    0.5490    0.0000 C   0  0  1  0  0  0
   -2.6505    1.9597    0.0000 C   0  0
   -0.8814    1.5963    0.0000 C   0  0  1  0  0  0
   -1.2211    3.0573    0.0000 C   0  0
    0.5767    1.2442    0.0000 C   0  0
    1.0009   -0.1946    0.0000 C   0  0
    0.0000   -1.5000    0.0000 C   0  0  1  0  0  0
    0.2930   -2.9711    0.0000 C   0  0
   -5.8905   -0.7500    0.0000 C   0  0
   -6.6405    0.5490    0.0000 O   0  0
   -6.6405   -2.0490    0.0000 C   0  0
   -8.1414   -2.0521    0.0000 O   0  0
   -8.8895   -3.3522    0.0000 C   0  0
   -5.8905   -3.3481    0.0000 C   0  0
   -4.3905   -3.3481    0.0000 C   0  0
   -3.6405   -4.6471    0.0000 O   0  0
  1  2  2  0
  2  3  1  0
  3  4  1  0
  4  5  1  0
  6  5  1  1
  6  7  1  0
  7  8  1  0
  8  9  2  0
  9 10  1  0
 10 11  1  0
 11  6  1  0
 11 12  1  1
 11 13  1  0
 13 14  1  1
 13 15  1  0
 15 16  1  0
 16 17  1  0
 17  2  1  0
 17  6  1  0
 17 18  1  6
  9 19  1  0
 19 20  2  0
 19 21  1  0
 21 22  1  0
 22 23  1  0
 21 24  2  0
 24 25  1  0
 25  8  1  0
 25 26  2  0
M  END
> <Smiles>
C=C1CCC[C@@]23OC4=C(C[C@]2(C)[C@@H](C)CC[C@@]13C)C(=O)C(OC)=CC4=O

> <ID>
CHEMBL1668117

> <standard_value>
32000

> <IC50_uM>
32

> <Activity>
No

> <pIC50>
4.494850022

> <BCI>
0

$$$$

  SciTegic03012415362D

 26 29  0  0  0  0            999 V2000
    2.4192   -8.3243    0.0000 N   0  0
    1.2028   -7.4466    0.0000 C   0  0
   -0.2222   -7.9149    0.0000 N   0  0
   -1.1079   -6.7042    0.0000 C   0  0
   -2.6079   -6.7003    0.0000 O   0  0
   -0.2234   -5.5086    0.0000 C   0  0
   -0.6890   -4.0818    0.0000 C   0  0
    0.3114   -2.9665    0.0000 C   0  0
    1.8032   -3.1233    0.0000 C   0  0
    2.4133   -1.7530    0.0000 N   0  0
    3.8794   -1.4442    0.0000 C   0  0
    4.8823   -2.5608    0.0000 C   0  0
    6.3506   -2.2538    0.0000 C   0  0
    7.3506   -3.3718    0.0000 C   0  0
    6.8824   -4.7969    0.0000 C   0  0
    7.8825   -5.9149    0.0000 F   0  0
    5.4142   -5.1039    0.0000 C   0  0
    4.4142   -3.9859    0.0000 C   0  0
    1.2990   -0.7500    0.0000 C   0  0
    1.2990    0.7500    0.0000 C   0  0
    0.0000    1.5000    0.0000 C   0  0
   -1.2990    0.7500    0.0000 C   0  0
   -2.5981    1.5000    0.0000 Cl  0  0
   -1.2990   -0.7500    0.0000 C   0  0
    0.0000   -1.5000    0.0000 C   0  0
    1.1979   -5.9466    0.0000 S   0  0
  1  2  2  0
  2  3  1  0
  3  4  1  0
  4  5  2  0
  4  6  1  0
  6  7  2  0
  7  8  1  0
  8  9  2  0
  9 10  1  0
 10 11  1  0
 11 12  1  0
 12 13  2  0
 13 14  1  0
 14 15  2  0
 15 16  1  0
 15 17  1  0
 17 18  2  0
 18 12  1  0
 10 19  1  0
 19 20  2  0
 20 21  1  0
 21 22  2  0
 22 23  1  0
 22 24  1  0
 24 25  2  0
 25  8  1  0
 25 19  1  0
  6 26  1  0
 26  2  1  0
M  END
> <Smiles>
N=C1NC(=O)/C(=C/c2cn(Cc3ccc(F)cc3)c3ccc(Cl)cc23)S1

> <ID>
CHEMBL1683040

> <standard_value>
32000

> <IC50_uM>
32

> <Activity>
No

> <pIC50>
4.494850022

> <BCI>
0

$$$$

  SciTegic03012415362D

 17 18  0  0  0  0            999 V2000
    2.5930   -4.5039    0.0000 N   0  0
    2.5951   -3.0039    0.0000 C   0  0
    2.5973   -1.5031    0.0000 C   0  0
    1.2990   -0.7500    0.0000 C   0  0
    1.2990    0.7500    0.0000 N   0  0
    0.0000    1.5000    0.0000 N   0  0
   -1.2990    0.7500    0.0000 C   0  0
   -2.5987    1.5004    0.0000 C   0  0
   -2.6012    3.0004    0.0000 C   0  0
   -3.9015    3.7484    0.0000 C   0  0
   -5.1993    2.9963    0.0000 C   0  0
   -6.4995    3.7442    0.0000 Br  0  0
   -5.1969    1.4963    0.0000 C   0  0
   -3.8967    0.7484    0.0000 C   0  0
   -1.2990   -0.7500    0.0000 C   0  0  3  0  0  0
   -2.5981   -1.5000    0.0000 Br  0  0
    0.0000   -1.5000    0.0000 O   0  0
  1  2  3  0
  2  3  1  0
  3  4  1  0
  4  5  2  0
  5  6  1  0
  6  7  2  0
  7  8  1  0
  8  9  2  0
  9 10  1  0
 10 11  2  0
 11 12  1  0
 11 13  1  0
 13 14  2  0
 14  8  1  0
  7 15  1  0
 15 16  1  4
 15 17  1  0
 17  4  1  0
M  END
> <Smiles>
N#CCC1=NN=C(c2ccc(Br)cc2)C(Br)O1

> <ID>
CHEMBL1766430

> <standard_value>
32000

> <IC50_uM>
32

> <Activity>
No

> <pIC50>
4.494850022

> <BCI>
0

$$$$

  SciTegic03012415362D

 26 29  0  0  0  0            999 V2000
    6.4966    0.7465    0.0000 C   0  0
    6.4963   -0.7535    0.0000 O   0  0
    5.1969   -1.5045    0.0000 C   0  0
    3.8991   -0.7525    0.0000 C   0  0
    2.5987   -1.5004    0.0000 C   0  0
    1.2990   -0.7500    0.0000 C   0  0
    1.2990    0.7500    0.0000 C   0  0
    0.0000    1.5000    0.0000 C   0  0
    0.0000    3.0000    0.0000 O   0  0
   -1.2990    0.7500    0.0000 C   0  0
   -2.5981    1.5000    0.0000 C   0  0
   -3.8971    0.7500    0.0000 C   0  0
   -3.8971   -0.7500    0.0000 C   0  0
   -2.5981   -1.5000    0.0000 C   0  0
   -1.2990   -0.7500    0.0000 C   0  0
    0.0000   -1.5000    0.0000 N   0  0
   -5.3228   -1.2136    0.0000 O   0  0
   -6.2045    0.0000    0.0000 C   0  0
   -5.3229    1.2135    0.0000 O   0  0
    2.5965   -3.0004    0.0000 C   0  0
    3.8943   -3.7525    0.0000 C   0  0
    3.8888   -5.2533    0.0000 O   0  0
    2.5875   -5.9994    0.0000 C   0  0
    5.1945   -3.0045    0.0000 C   0  0
    6.4946   -3.7543    0.0000 O   0  0
    7.7938   -3.0046    0.0000 C   0  0
  1  2  1  0
  2  3  1  0
  3  4  2  0
  4  5  1  0
  5  6  1  0
  6  7  2  0
  7  8  1  0
  8  9  1  0
  8 10  2  0
 10 11  1  0
 11 12  2  0
 12 13  1  0
 13 14  2  0
 14 15  1  0
 15 10  1  0
 15 16  2  0
 16  6  1  0
 13 17  1  0
 17 18  1  0
 18 19  1  0
 19 12  1  0
  5 20  2  0
 20 21  1  0
 21 22  1  0
 22 23  1  0
 21 24  2  0
 24  3  1  0
 24 25  1  0
 25 26  1  0
M  END
> <Smiles>
COc1cc(-c2cc(O)c3cc4c(cc3n2)OCO4)cc(OC)c1OC

> <ID>
CHEMBL14678

> <standard_value>
32359.37

> <IC50_uM>
32.35937

> <Activity>
No

> <pIC50>
4.489999942

> <BCI>
0

$$$$

  SciTegic03012415362D

 28 30  0  0  1  0            999 V2000
   -4.0963   -2.0431    0.0000 C   0  0
   -2.6280   -2.3497    0.0000 C   0  0
   -2.1581   -3.7751    0.0000 C   0  0
   -0.6890   -4.0818    0.0000 C   0  0  1  0  0  0
   -0.2234   -5.5086    0.0000 N   0  0
   -1.2256   -6.6258    0.0000 C   0  0  1  0  0  0
   -2.6935   -6.3130    0.0000 C   0  0
   -3.1572   -4.8865    0.0000 O   0  0
   -0.7600   -8.0526    0.0000 C   0  0
   -1.7600   -9.1707    0.0000 C   0  0
   -1.2918  -10.5957    0.0000 C   0  0
    0.1764  -10.9028    0.0000 C   0  0
    1.1765   -9.7848    0.0000 C   0  0
    0.7083   -8.3597    0.0000 C   0  0
    0.3114   -2.9665    0.0000 C   0  0
    1.8032   -3.1233    0.0000 C   0  0
    2.4133   -1.7530    0.0000 N   0  0
    3.8794   -1.4442    0.0000 C   0  0
    4.3452   -0.0183    0.0000 O   0  0
    4.8823   -2.5608    0.0000 O   0  0
    6.3509   -2.2515    0.0000 C   0  0
    7.3532   -3.3674    0.0000 C   0  0
    1.2990   -0.7500    0.0000 C   0  0
    1.2990    0.7500    0.0000 C   0  0
    0.0000    1.5000    0.0000 C   0  0
   -1.2990    0.7500    0.0000 C   0  0
   -1.2990   -0.7500    0.0000 C   0  0
    0.0000   -1.5000    0.0000 C   0  0
  1  2  2  0
  2  3  1  0
  4  3  1  6
  4  5  1  0
  6  5  1  6
  6  7  1  0
  7  8  1  0
  6  9  1  0
  9 10  2  0
 10 11  1  0
 11 12  2  0
 12 13  1  0
 13 14  2  0
 14  9  1  0
  4 15  1  0
 15 16  2  0
 16 17  1  0
 17 18  1  0
 18 19  2  0
 18 20  1  0
 20 21  1  0
 21 22  1  0
 17 23  1  0
 23 24  2  0
 24 25  1  0
 25 26  2  0
 26 27  1  0
 27 28  2  0
 28 15  1  0
 28 23  1  0
M  END
> <Smiles>
C=CC[C@@H](N[C@@H](CO)c1ccccc1)c1cn(C(=O)OCC)c2ccccc12

> <ID>
CHEMBL426193

> <standard_value>
32359.37

> <IC50_uM>
32.35937

> <Activity>
No

> <pIC50>
4.489999942

> <BCI>
0

$$$$

  SciTegic03012415362D

 13 13  0  0  0  0            999 V2000
    2.5951   -3.0031    0.0000 O   0  0
    2.5973   -1.5031    0.0000 N   0  3
    3.8976   -0.7553    0.0000 O   0  5
    1.2990   -0.7500    0.0000 C   0  0
    1.2990    0.7500    0.0000 C   0  0
    0.0000    1.5000    0.0000 C   0  0
   -1.2990    0.7500    0.0000 C   0  0
   -1.2990   -0.7500    0.0000 C   0  0
   -2.5972   -1.5031    0.0000 C   0  0
   -2.5951   -3.0039    0.0000 C   0  0
   -3.8933   -3.7570    0.0000 C   0  0
   -3.8912   -5.2570    0.0000 I   0  0
    0.0000   -1.5000    0.0000 C   0  0
  1  2  2  0
  2  3  1  0
  2  4  1  0
  4  5  2  0
  5  6  1  0
  6  7  2  0
  7  8  1  0
  8  9  1  0
  9 10  1  0
 10 11  1  0
 11 12  1  0
  8 13  2  0
 13  4  1  0
M  CHG  2   2   1   3  -1
M  END
> <Smiles>
O=[N+]([O-])c1cccc(CCCI)c1

> <ID>
CHEMBL1774700

> <standard_value>
34300

> <IC50_uM>
34.3

> <Activity>
No

> <pIC50>
4.46470588

> <BCI>
0

$$$$

  SciTegic03012415362D

 17 19  0  0  0  0            999 V2000
    4.4991   -8.4771    0.0000 N   0  0
    3.8490   -7.1253    0.0000 C   0  0
    4.6946   -5.8864    0.0000 C   0  0
    4.0445   -4.5346    0.0000 C   0  0
    2.5536   -4.4230    0.0000 C   0  0
    1.8032   -3.1233    0.0000 C   0  0
    2.4133   -1.7530    0.0000 N   0  0
    1.2990   -0.7500    0.0000 C   0  0
    1.2990    0.7500    0.0000 C   0  0
    0.0000    1.5000    0.0000 C   0  0
   -1.2990    0.7500    0.0000 C   0  0
   -1.2990   -0.7500    0.0000 C   0  0
    0.0000   -1.5000    0.0000 C   0  0
    0.3114   -2.9665    0.0000 S   0  0
    1.7031   -5.6606    0.0000 C   0  0
    2.3532   -7.0124    0.0000 C   0  0
    1.5076   -8.2513    0.0000 Br  0  0
  1  2  1  0
  2  3  2  0
  3  4  1  0
  4  5  2  0
  5  6  1  0
  6  7  2  0
  7  8  1  0
  8  9  2  0
  9 10  1  0
 10 11  2  0
 11 12  1  0
 12 13  2  0
 13  8  1  0
 13 14  1  0
 14  6  1  0
  5 15  1  0
 15 16  2  0
 16  2  1  0
 16 17  1  0
M  END
> <Smiles>
Nc1ccc(-c2nc3ccccc3s2)cc1Br

> <ID>
CHEMBL12169

> <standard_value>
34673.69

> <IC50_uM>
34.67369

> <Activity>
No

> <pIC50>
4.459999938

> <BCI>
0

$$$$

  SciTegic03012415362D

 34 37  0  0  1  0            999 V2000
   -0.2360   -5.4963    0.0000 C   0  0
   -0.6980   -4.0693    0.0000 C   0  0  2  0  0  0
   -2.1658   -3.7561    0.0000 C   0  0
   -3.1716   -4.8700    0.0000 C   0  0
   -2.7097   -6.2971    0.0000 O   0  0
   -4.6394   -4.5568    0.0000 C   0  0
   -5.6452   -5.6707    0.0000 C   0  0  2  0  0  0
   -5.1833   -7.0978    0.0000 C   0  0
   -7.1130   -5.3575    0.0000 C   0  0
   -8.1183   -6.4708    0.0000 O   0  0
   -7.5750   -3.9304    0.0000 O   0  0
    0.3061   -2.9572    0.0000 C   0  0
    1.7979   -3.1140    0.0000 C   0  0
    2.4080   -1.7436    0.0000 C   0  0
    1.2990   -0.7500    0.0000 C   0  0  1  0  0  0
    2.6686   -0.1382    0.0000 C   0  0
    1.2990    0.7500    0.0000 C   0  0  2  0  0  0
    2.5981    1.5000    0.0000 C   0  0
    2.5981    3.0000    0.0000 C   0  0
    1.2990    3.7500    0.0000 C   0  0  1  0  0  0
    1.2990    5.2500    0.0000 C   0  0
    2.5800    4.4696    0.0000 C   0  0
    1.2638    6.7496    0.0000 C   0  0
    0.0000    6.0000    0.0000 C   0  0  2  0  0  0
   -0.0001    7.5000    0.0000 O   0  0
   -1.2991    5.2500    0.0000 C   0  0
   -1.2991    3.7500    0.0000 C   0  0
    0.0000    3.0000    0.0000 C   0  0  1  0  0  0
   -1.2991    2.2500    0.0000 C   0  0
    0.0000    1.5000    0.0000 C   0  0
   -1.2990    0.7500    0.0000 C   0  0
   -1.2990   -0.7500    0.0000 C   0  0
    0.0000   -1.5000    0.0000 C   0  0  2  0  0  0
   -1.2146   -2.3802    0.0000 C   0  0
  2  1  1  6
  2  3  1  0
  3  4  1  0
  4  5  2  0
  4  6  1  0
  6  7  1  0
  7  8  1  6
  7  9  1  0
  9 10  2  0
  9 11  1  0
  2 12  1  0
 12 13  2  0
 13 14  1  0
 14 15  1  0
 15 16  1  1
 15 17  1  0
 17 18  1  1
 18 19  1  0
 20 19  1  6
 20 21  1  0
 21 22  1  0
 21 23  1  0
 21 24  1  0
 24 25  1  1
 24 26  1  0
 26 27  1  0
 27 28  1  0
 28 20  1  0
 28 29  1  6
 28 30  1  0
 30 17  1  0
 30 31  2  0
 31 32  1  0
 32 33  1  0
 33 12  1  0
 33 15  1  0
 33 34  1  6
M  END
> <Smiles>
C[C@H](CC(=O)C[C@H](C)C(=O)O)C1=CC[C@@]2(C)[C@@H]3CC[C@H]4C(C)(C)[C@H](O)CC[C@]4(C)C3=CC[C@]12C

> <ID>
CHEMBL486615

> <standard_value>
34800

> <IC50_uM>
34.8

> <Activity>
No

> <pIC50>
4.458420756

> <BCI>
0

$$$$

  SciTegic03012415362D

 26 30  0  0  0  0            999 V2000
    0.7932   -6.4423    0.0000 C   0  0
    1.9149   -5.4464    0.0000 O   0  0
    1.6142   -3.9761    0.0000 C   0  0
    0.1911   -3.5020    0.0000 O   0  0
    2.7345   -2.9814    0.0000 C   0  0
    4.2013   -3.2954    0.0000 N   0  0
    4.9525   -1.9980    0.0000 C   0  0
    6.4202   -1.6882    0.0000 C   0  0
    6.8858   -0.2623    0.0000 C   0  0
    5.8837    0.8539    0.0000 C   0  0
    4.4160    0.5441    0.0000 C   0  0
    3.9504   -0.8818    0.0000 C   0  0
    2.5987   -1.5004    0.0000 C   0  0  3  0  0  0
    1.2990   -0.7500    0.0000 C   0  0
    1.2990    0.7500    0.0000 C   0  0
    0.0000    1.5000    0.0000 C   0  0
   -1.2990    0.7500    0.0000 C   0  0
   -1.2990   -0.7500    0.0000 C   0  0
    0.0000   -1.5000    0.0000 C   0  0
   -0.3114   -2.9665    0.0000 O   0  0
   -1.8032   -3.1233    0.0000 C   0  0
   -2.6837   -4.3363    0.0000 C   0  0
   -4.1755   -4.1795    0.0000 C   0  0
   -4.7856   -2.8092    0.0000 C   0  0
   -3.9040   -1.5957    0.0000 C   0  0
   -2.4133   -1.7530    0.0000 C   0  0
  1  2  1  0
  2  3  1  0
  3  4  2  0
  3  5  1  0
  5  6  1  0
  6  7  1  0
  7  8  2  0
  8  9  1  0
  9 10  2  0
 10 11  1  0
 11 12  2  0
 12  7  1  0
 13 12  1  4
 13  5  2  0
 13 14  1  0
 14 15  2  0
 15 16  1  0
 16 17  2  0
 17 18  1  0
 18 19  2  0
 19 14  1  0
 19 20  1  0
 20 21  1  0
 21 22  2  0
 22 23  1  0
 23 24  2  0
 24 25  1  0
 25 26  2  0
 26 21  1  0
 26 18  1  0
M  END
> <Smiles>
COC(=O)c1[nH]c2ccccc2c1-c1cccc2c1oc1ccccc12

> <ID>
CHEMBL522531

> <standard_value>
35000

> <IC50_uM>
35

> <Activity>
No

> <pIC50>
4.455931956

> <BCI>
0

$$$$

  SciTegic03012415362D

 18 18  0  0  0  0            999 V2000
    3.8988   -3.7512    0.0000 C   0  0
    2.5997   -3.0012    0.0000 C   0  0
    2.5988   -1.5004    0.0000 C   0  0
    3.8976   -0.7500    0.0000 C   0  0
    3.8982   -2.2498    0.0000 C   0  0
    1.2990   -0.7500    0.0000 C   0  0
    1.2990    0.7500    0.0000 C   0  0
    0.0000    1.5000    0.0000 C   0  0
    0.0000    3.0000    0.0000 O   0  0
   -1.2990    0.7500    0.0000 C   0  0
   -2.6003    1.4977    0.0000 C   0  0
   -3.8990    0.7455    0.0000 C   0  0
   -5.2003    1.4932    0.0000 C   0  0
   -6.4983    0.7413    0.0000 C   0  0
   -5.2029    2.9932    0.0000 C   0  0
   -1.2990   -0.7500    0.0000 C   0  0
    0.0000   -1.5000    0.0000 C   0  0
    0.0000   -3.0000    0.0000 O   0  0
  1  2  2  0
  2  3  1  0
  3  4  1  0
  3  5  1  0
  3  6  1  0
  6  7  2  0
  7  8  1  0
  8  9  1  0
  8 10  2  0
 10 11  1  0
 11 12  1  0
 12 13  2  0
 13 14  1  0
 13 15  1  0
 10 16  1  0
 16 17  2  0
 17  6  1  0
 17 18  1  0
M  END
> <Smiles>
C=CC(C)(C)c1cc(O)c(CC=C(C)C)cc1O

> <ID>
CHEMBL1773907

> <standard_value>
35000

> <IC50_uM>
35

> <Activity>
No

> <pIC50>
4.455931956

> <BCI>
0

$$$$

  SciTegic03012415362D

 18 20  0  0  0  0            999 V2000
    6.1903   -5.9992    0.0000 C   0  0
    4.6946   -5.8864    0.0000 C   0  0
    4.0445   -4.5346    0.0000 C   0  0
    2.5536   -4.4230    0.0000 C   0  0
    1.8032   -3.1233    0.0000 C   0  0
    2.4133   -1.7530    0.0000 N   0  0
    1.2990   -0.7500    0.0000 C   0  0
    1.2990    0.7500    0.0000 C   0  0
    0.0000    1.5000    0.0000 C   0  0
   -1.2990    0.7500    0.0000 C   0  0
   -2.5981    1.5000    0.0000 O   0  0
   -1.2990   -0.7500    0.0000 C   0  0
    0.0000   -1.5000    0.0000 C   0  0
    0.3114   -2.9665    0.0000 S   0  0
    1.7031   -5.6606    0.0000 C   0  0
    2.3532   -7.0124    0.0000 C   0  0
    3.8490   -7.1253    0.0000 C   0  0
    4.4991   -8.4771    0.0000 N   0  0
  1  2  1  0
  2  3  2  0
  3  4  1  0
  4  5  1  0
  5  6  2  0
  6  7  1  0
  7  8  2  0
  8  9  1  0
  9 10  2  0
 10 11  1  0
 10 12  1  0
 12 13  2  0
 13  7  1  0
 13 14  1  0
 14  5  1  0
  4 15  2  0
 15 16  1  0
 16 17  2  0
 17  2  1  0
 17 18  1  0
M  END
> <Smiles>
Cc1cc(-c2nc3ccc(O)cc3s2)ccc1N

> <ID>
CHEMBL133564

> <standard_value>
35481.34

> <IC50_uM>
35.48134

> <Activity>
No

> <pIC50>
4.449999987

> <BCI>
0

$$$$

  SciTegic03012415362D

 12 12  0  0  0  0            999 V2000
    2.5951   -3.0031    0.0000 O   0  0
    2.5973   -1.5031    0.0000 N   0  3
    3.8976   -0.7553    0.0000 O   0  5
    1.2990   -0.7500    0.0000 C   0  0
    1.2990    0.7500    0.0000 C   0  0
    0.0000    1.5000    0.0000 C   0  0
   -1.2990    0.7500    0.0000 C   0  0
   -1.2990   -0.7500    0.0000 C   0  0
   -2.5972   -1.5031    0.0000 C   0  0
   -2.5951   -3.0039    0.0000 C   0  0
   -3.8926   -3.7566    0.0000 I   0  0
    0.0000   -1.5000    0.0000 C   0  0
  1  2  2  0
  2  3  1  0
  2  4  1  0
  4  5  2  0
  5  6  1  0
  6  7  2  0
  7  8  1  0
  8  9  1  0
  9 10  1  0
 10 11  1  0
  8 12  2  0
 12  4  1  0
M  CHG  2   2   1   3  -1
M  END
> <Smiles>
O=[N+]([O-])c1cccc(CCI)c1

> <ID>
CHEMBL1774702

> <standard_value>
35700

> <IC50_uM>
35.7

> <Activity>
No

> <pIC50>
4.447331784

> <BCI>
0

$$$$

  SciTegic03012415362D

 17 18  0  0  0  0            999 V2000
    3.9200   -5.8774    0.0000 O   0  0
    4.8054   -4.6666    0.0000 C   0  0
    4.2010   -3.2956    0.0000 C   0  0
    4.9531   -1.9978    0.0000 C   0  0
    3.9511   -0.8815    0.0000 C   0  0
    2.5987   -1.5004    0.0000 C   0  0
    1.2990   -0.7500    0.0000 C   0  0
    1.2990    0.7500    0.0000 C   0  0
    2.5981    1.5000    0.0000 O   0  0
    0.0000    1.5000    0.0000 C   0  0
   -1.2990    0.7500    0.0000 C   0  0
   -1.2990   -0.7500    0.0000 C   0  0
   -2.5981   -1.5000    0.0000 O   0  0
    0.0000   -1.5000    0.0000 C   0  0
    0.0031   -3.0008    0.0000 C   0  0
    1.3032   -3.7490    0.0000 O   0  0
    2.7343   -2.9815    0.0000 O   0  0
  1  2  2  0
  2  3  1  0
  3  4  2  0
  4  5  1  0
  5  6  2  0
  6  7  1  0
  7  8  2  0
  8  9  1  0
  8 10  1  0
 10 11  2  0
 11 12  1  0
 12 13  1  0
 12 14  2  0
 14  7  1  0
 14 15  1  0
 15 16  2  0
  6 17  1  0
 17  3  1  0
M  END
> <Smiles>
O=Cc1ccc(-c2c(O)ccc(O)c2C=O)o1

> <ID>
CHEMBL259818

> <standard_value>
35800

> <IC50_uM>
35.8

> <Activity>
No

> <pIC50>
4.446116973

> <BCI>
0

$$$$

  SciTegic03012415362D

 21 23  0  0  0  0            999 V2000
    6.4870   -5.2597    0.0000 C   0  0
    6.4915   -3.7597    0.0000 O   0  0
    5.1945   -3.0045    0.0000 C   0  0
    5.1969   -1.5045    0.0000 C   0  0
    3.8991   -0.7525    0.0000 C   0  0
    2.5987   -1.5004    0.0000 C   0  0
    1.2990   -0.7500    0.0000 C   0  0
    1.2990    0.7500    0.0000 C   0  0
    0.0000    1.5000    0.0000 C   0  0
    0.0000    3.0000    0.0000 O   0  0
   -1.2990    0.7500    0.0000 C   0  0
   -2.5981    1.5000    0.0000 C   0  0
   -3.8971    0.7500    0.0000 C   0  0
   -5.1984    1.4977    0.0000 O   0  0
   -6.4964    0.7459    0.0000 C   0  0
   -3.8971   -0.7500    0.0000 C   0  0
   -2.5981   -1.5000    0.0000 C   0  0
   -1.2990   -0.7500    0.0000 C   0  0
    0.0000   -1.5000    0.0000 N   0  0
    2.5965   -3.0004    0.0000 C   0  0
    3.8943   -3.7525    0.0000 C   0  0
  1  2  1  0
  2  3  1  0
  3  4  2  0
  4  5  1  0
  5  6  2  0
  6  7  1  0
  7  8  2  0
  8  9  1  0
  9 10  1  0
  9 11  2  0
 11 12  1  0
 12 13  2  0
 13 14  1  0
 14 15  1  0
 13 16  1  0
 16 17  2  0
 17 18  1  0
 18 11  1  0
 18 19  2  0
 19  7  1  0
  6 20  1  0
 20 21  2  0
 21  3  1  0
M  END
> <Smiles>
COc1ccc(-c2cc(O)c3cc(OC)ccc3n2)cc1

> <ID>
CHEMBL14284

> <standard_value>
36307.81

> <IC50_uM>
36.30781

> <Activity>
No

> <pIC50>
4.439999946

> <BCI>
0

$$$$

  SciTegic03012415362D

 27 30  0  0  0  0            999 V2000
    2.5981   -1.5000    0.0000 C   0  0
    1.2990   -0.7500    0.0000 C   0  0
    1.2990    0.7500    0.0000 N   0  0
    0.0000    1.5000    0.0000 C   0  0
    0.0000    3.0000    0.0000 C   0  0
   -1.2991    3.7500    0.0000 C   0  0
   -2.5981    3.0000    0.0000 C   0  0
   -2.5981    1.5000    0.0000 C   0  0
   -1.2990    0.7500    0.0000 C   0  0
   -1.2990   -0.7500    0.0000 C   0  0
   -2.5981   -1.5000    0.0000 O   0  0
    0.0000   -1.5000    0.0000 N   0  0
    0.0000   -3.0008    0.0000 N   0  0
   -1.2978   -3.7529    0.0000 C   0  0
   -2.5981   -3.0050    0.0000 C   0  0
   -1.2955   -5.2529    0.0000 C   0  0
    0.0048   -6.0009    0.0000 C   0  0
    0.0072   -7.5009    0.0000 O   0  0
    1.3026   -5.2488    0.0000 N   0  0
    2.6035   -5.9971    0.0000 C   0  0
    2.6084   -7.4972    0.0000 C   0  0
    3.9098   -8.2430    0.0000 C   0  0
    5.2064   -7.4889    0.0000 C   0  0
    5.2017   -5.9889    0.0000 C   0  0
    3.9002   -5.2430    0.0000 C   0  0
    1.3002   -3.7488    0.0000 C   0  0
    2.5981   -2.9968    0.0000 S   0  0
  1  2  1  0
  2  3  2  0
  3  4  1  0
  4  5  2  0
  5  6  1  0
  6  7  2  0
  7  8  1  0
  8  9  2  0
  9  4  1  0
  9 10  1  0
 10 11  2  0
 10 12  1  0
 12  2  1  0
 12 13  1  0
 13 14  1  0
 14 15  1  0
 14 16  2  0
 16 17  1  0
 17 18  2  0
 17 19  1  0
 19 20  1  0
 20 21  2  0
 21 22  1  0
 22 23  2  0
 23 24  1  0
 24 25  2  0
 25 20  1  0
 19 26  1  0
 26 13  1  0
 26 27  2  0
M  END
> <Smiles>
Cc1nc2ccccc2c(=O)n1-n1c(C)cc(=O)n(-c2ccccc2)c1=S

> <ID>
CHEMBL2295860

> <standard_value>
36800

> <IC50_uM>
36.8

> <Activity>
No

> <pIC50>
4.434152181

> <BCI>
0

$$$$

  SciTegic03012415362D

 30 30  0  0  1  0            999 V2000
    3.7391    0.1438    0.0000 C   0  0
    2.7776   -1.0076    0.0000 C   0  0
    3.2947   -2.4165    0.0000 C   0  0
    4.7725   -2.6739    0.0000 O   0  0
    1.2990   -0.7500    0.0000 C   0  0  3  0  0  0
    1.2990    0.7500    0.0000 C   0  0  1  0  0  0
    2.5981    1.5000    0.0000 O   0  0
    0.0000    1.5000    0.0000 C   0  0  2  0  0  0
    0.0031    3.0008    0.0000 C   0  0
   -0.8621    3.5023    0.0000 C   0  0
    1.3039    3.7494    0.0000 C   0  0
    2.6016    2.9971    0.0000 O   0  0
    1.3070    5.2502    0.0000 O   0  0
    2.6071    5.9984    0.0000 C   0  0
   -1.2990    0.7500    0.0000 C   0  0  1  0  0  0
   -2.5973    1.5031    0.0000 O   0  0
   -2.5951    3.0039    0.0000 C   0  0
   -1.7282    3.5024    0.0000 O   0  0
   -3.8933    3.7570    0.0000 C   0  0
   -5.1937    3.0092    0.0000 C   0  0
   -3.8912    5.2578    0.0000 C   0  0  1  0  0  0
   -2.5909    6.0055    0.0000 O   0  0
   -5.1894    6.0109    0.0000 C   0  0
   -5.1873    7.5109    0.0000 O   0  0
   -1.2990   -0.7500    0.0000 C   0  0
    0.0000   -1.5000    0.0000 C   0  0  2  0  0  0
   -1.3170   -2.2179    0.0000 C   0  0
    1.2999   -2.2084    0.0000 C   0  0
    2.1662   -1.7088    0.0000 C   0  0
    1.2998   -3.7084    0.0000 O   0  0
  1  2  2  0
  2  3  1  0
  3  4  1  0
  5  2  1  4
  5  6  1  0
  6  7  1  6
  6  8  1  0
  8  9  1  1
  9 10  2  0
  9 11  1  0
 11 12  2  0
 11 13  1  0
 13 14  1  0
  8 15  1  0
 15 16  1  6
 16 17  1  0
 17 18  2  0
 17 19  1  0
 19 20  2  0
 19 21  1  0
 21 22  1  6
 21 23  1  0
 23 24  1  0
 15 25  1  0
 25 26  1  0
 26  5  1  0
 26 27  1  1
 26 28  1  0
 28 29  2  0
 28 30  1  0
M  END
> <Smiles>
C=C(CO)C1[C@@H](O)[C@H](C(=C)C(=O)OC)[C@@H](OC(=O)C(=C)[C@@H](O)CO)C[C@@]1(C)C(=C)O

> <ID>
CHEMBL465976

> <standard_value>
37600

> <IC50_uM>
37.6

> <Activity>
No

> <pIC50>
4.424812155

> <BCI>
0

$$$$

  SciTegic03012415362D

 25 28  0  0  0  0            999 V2000
    2.5981   -1.5000    0.0000 C   0  0
    1.2990   -0.7500    0.0000 C   0  0
    1.2990    0.7500    0.0000 N   0  0
    0.0000    1.5000    0.0000 C   0  0
    0.0000    3.0000    0.0000 C   0  0
   -1.2991    3.7500    0.0000 C   0  0
   -2.5981    3.0000    0.0000 C   0  0
   -2.5981    1.5000    0.0000 C   0  0
   -1.2990    0.7500    0.0000 C   0  0
   -1.2990   -0.7500    0.0000 C   0  0
   -2.5981   -1.5000    0.0000 O   0  0
    0.0000   -1.5000    0.0000 N   0  0
    0.0031   -3.0008    0.0000 N   0  0
    1.3039   -3.7494    0.0000 C   0  0
    2.6532   -3.1236    0.0000 S   0  0
    3.6607   -4.2349    0.0000 C   0  0
    2.9152   -5.5365    0.0000 C   0  0
    3.5301   -6.9047    0.0000 O   0  0
    1.4469   -5.2297    0.0000 N   0  0
    0.3292   -6.2312    0.0000 C   0  0
   -1.1235   -5.8791    0.0000 C   0  0
   -2.1577   -6.9656    0.0000 C   0  0
   -1.7339   -8.4045    0.0000 C   0  0
   -0.2758   -8.7569    0.0000 C   0  0
    0.7584   -7.6704    0.0000 C   0  0
  1  2  1  0
  2  3  2  0
  3  4  1  0
  4  5  2  0
  5  6  1  0
  6  7  2  0
  7  8  1  0
  8  9  2  0
  9  4  1  0
  9 10  1  0
 10 11  2  0
 10 12  1  0
 12  2  1  0
 12 13  1  0
 13 14  2  0
 14 15  1  0
 15 16  1  0
 16 17  1  0
 17 18  2  0
 17 19  1  0
 19 14  1  0
 19 20  1  0
 20 21  2  0
 21 22  1  0
 22 23  2  0
 23 24  1  0
 24 25  2  0
 25 20  1  0
M  END
> <Smiles>
Cc1nc2ccccc2c(=O)n1/N=C1\SCC(=O)N1c1ccccc1

> <ID>
CHEMBL2297611

> <standard_value>
38400

> <IC50_uM>
38.4

> <Activity>
No

> <pIC50>
4.415668776

> <BCI>
0

$$$$

  SciTegic03012415362D

 35 38  0  0  1  0            999 V2000
    7.9466   -9.9983    0.0000 C   0  0
    6.4834   -9.6684    0.0000 O   0  0
    6.0363   -8.2357    0.0000 C   0  0
    7.0533   -7.1331    0.0000 O   0  0
    4.5723   -7.9056    0.0000 C   0  0
    3.5552   -9.0082    0.0000 C   0  0
    4.1252   -6.4729    0.0000 C   0  0
    2.6611   -6.1428    0.0000 C   0  0  2  0  0  0
    1.6441   -7.2454    0.0000 O   0  0
    2.2141   -4.7101    0.0000 C   0  0
    0.7500   -4.3800    0.0000 C   0  0  1  0  0  0
   -0.2670   -5.4825    0.0000 C   0  0
    0.2851   -2.9666    0.0000 C   0  0  2  0  0  0
   -0.6870   -2.7320    0.0000 C   0  0
    1.7758   -3.1329    0.0000 C   0  0
    2.3947   -1.7666    0.0000 C   0  0
    1.2990   -0.7500    0.0000 C   0  0
    1.2990    0.7500    0.0000 C   0  0
    0.0000    1.5000    0.0000 C   0  0
   -1.2990    0.7500    0.0000 C   0  0
   -1.2990   -0.7500    0.0000 C   0  0
    0.0000   -1.5000    0.0000 C   0  0  1  0  0  0
   -0.8141   -2.0807    0.0000 C   0  0
    0.0000    3.0000    0.0000 C   0  0  1  0  0  0
   -1.2991    2.2500    0.0000 C   0  0
   -1.2991    3.7500    0.0000 C   0  0
   -1.2991    5.2500    0.0000 C   0  0
    0.0000    6.0000    0.0000 C   0  0  1  0  0  0
    0.0000    7.5000    0.0000 O   0  0
    1.2990    5.2500    0.0000 C   0  0
    2.5800    4.4696    0.0000 C   0  0
    1.2638    6.7496    0.0000 C   0  0
    1.2990    3.7500    0.0000 C   0  0  2  0  0  0
    2.5981    3.0000    0.0000 C   0  0
    2.5981    1.5000    0.0000 C   0  0
  1  2  1  0
  2  3  1  0
  3  4  2  0
  3  5  1  0
  5  6  1  0
  5  7  2  0
  7  8  1  0
  8  9  1  6
  8 10  1  0
 10 11  1  0
 11 12  1  1
 11 13  1  0
 13 14  1  6
 13 15  1  0
 15 16  1  0
 16 17  2  0
 17 18  1  0
 18 19  2  0
 19 20  1  0
 20 21  1  0
 21 22  1  0
 22 17  1  0
 22 13  1  0
 22 23  1  1
 19 24  1  0
 24 25  1  6
 24 26  1  0
 26 27  1  0
 27 28  1  0
 28 29  1  1
 28 30  1  0
 30 31  1  0
 30 32  1  0
 30 33  1  0
 33 24  1  0
 33 34  1  6
 34 35  1  0
 35 18  1  0
M  END
> <Smiles>
COC(=O)/C(C)=C/[C@H](O)C[C@@H](C)[C@]1(C)CC=C2C3=C(CC[C@]21C)[C@@]1(C)CC[C@@H](O)C(C)(C)[C@@H]1CC3

> <ID>
CHEMBL511954

> <standard_value>
38600

> <IC50_uM>
38.6

> <Activity>
No

> <pIC50>
4.413412695

> <BCI>
0

$$$$

  SciTegic03012415362D

 17 17  0  0  0  0            999 V2000
    3.8988   -3.7512    0.0000 C   0  0
    2.5997   -3.0012    0.0000 C   0  0
    2.5988   -1.5004    0.0000 C   0  0
    3.8976   -0.7500    0.0000 C   0  0
    3.8982   -2.2498    0.0000 C   0  0
    1.2990   -0.7500    0.0000 C   0  0
    1.2990    0.7500    0.0000 C   0  0
    0.0000    1.5000    0.0000 C   0  0
   -1.2990    0.7500    0.0000 C   0  0
   -2.5981    1.5000    0.0000 O   0  0
   -1.2990   -0.7500    0.0000 C   0  0
   -2.5972   -1.5031    0.0000 C   0  0
   -2.5951   -3.0039    0.0000 C   0  0
   -3.8933   -3.7570    0.0000 C   0  0
   -3.8912   -5.2570    0.0000 C   0  0
   -5.1937   -3.0093    0.0000 C   0  0
    0.0000   -1.5000    0.0000 C   0  0
  1  2  2  0
  2  3  1  0
  3  4  1  0
  3  5  1  0
  3  6  1  0
  6  7  2  0
  7  8  1  0
  8  9  2  0
  9 10  1  0
  9 11  1  0
 11 12  1  0
 12 13  1  0
 13 14  2  0
 14 15  1  0
 14 16  1  0
 11 17  2  0
 17  6  1  0
M  END
> <Smiles>
C=CC(C)(C)c1ccc(O)c(CC=C(C)C)c1

> <ID>
CHEMBL251493

> <standard_value>
39000

> <IC50_uM>
39

> <Activity>
No

> <pIC50>
4.408935393

> <BCI>
0

$$$$

  SciTegic03012415362D

 20 22  0  0  1  0            999 V2000
   -0.6923   -4.0811    0.0000 C   0  0
    0.3114   -2.9665    0.0000 C   0  0
    1.8032   -3.1233    0.0000 C   0  0
    2.5532   -4.4223    0.0000 O   0  0
    2.4133   -1.7530    0.0000 O   0  0
    1.2990   -0.7500    0.0000 C   0  0  1  0  0  0
    1.2990    0.7500    0.0000 C   0  0
    0.0000    1.5000    0.0000 C   0  0  1  0  0  0
    1.2990    2.2500    0.0000 C   0  0
    0.0000    3.0000    0.0000 C   0  0  2  0  0  0
    1.2990    3.7500    0.0000 O   0  0
   -1.2991    3.7500    0.0000 C   0  0
   -2.5981    3.0000    0.0000 C   0  0
   -2.5981    1.5000    0.0000 C   0  0  1  0  0  0
   -2.5627    0.0004    0.0000 C   0  0
   -3.8792    2.2803    0.0000 O   0  0
   -1.2990    0.7500    0.0000 C   0  0  2  0  0  0
   -1.2990   -0.7500    0.0000 C   0  0  1  0  0  0
   -2.5981   -1.5000    0.0000 O   0  0
    0.0000   -1.5000    0.0000 C   0  0  2  0  0  0
  1  2  2  0
  2  3  1  0
  3  4  2  0
  3  5  1  0
  6  5  1  6
  6  7  1  0
  7  8  1  0
  8  9  1  1
  8 10  1  0
 10 11  1  1
 10 12  1  0
 12 13  1  0
 13 14  1  0
 14 15  1  1
 14 16  1  0
 17 14  1  1
 17  8  1  0
 17 18  1  0
 18 19  1  6
 18 20  1  0
 20  2  1  1
 20  6  1  0
M  END
> <Smiles>
C=C1C(=O)O[C@H]2C[C@@]3(C)[C@H](O)CC[C@@](C)(O)[C@@H]3[C@@H](O)[C@H]12

> <ID>
CHEMBL1092506

> <standard_value>
40300

> <IC50_uM>
40.3

> <Activity>
No

> <pIC50>
4.394694954

> <BCI>
0

$$$$

  SciTegic03012415362D

 19 21  0  0  1  0            999 V2000
   -0.6923   -4.0811    0.0000 C   0  0
    0.3114   -2.9665    0.0000 C   0  0
    1.8032   -3.1233    0.0000 C   0  0
    2.5532   -4.4223    0.0000 O   0  0
    2.4133   -1.7530    0.0000 O   0  0
    1.2990   -0.7500    0.0000 C   0  0  1  0  0  0
    1.2990    0.7500    0.0000 C   0  0
    0.0000    1.5000    0.0000 C   0  0  1  0  0  0
    1.2990    2.2500    0.0000 C   0  0
    0.0000    3.0000    0.0000 C   0  0  2  0  0  0
    1.2990    3.7500    0.0000 O   0  0
   -1.2991    3.7500    0.0000 C   0  0
   -2.5981    3.0000    0.0000 C   0  0
   -2.5981    1.5000    0.0000 C   0  0
   -3.8971    0.7500    0.0000 C   0  0
   -1.2990    0.7500    0.0000 C   0  0  2  0  0  0
   -1.2990   -0.7500    0.0000 C   0  0  1  0  0  0
   -2.5981   -1.5000    0.0000 O   0  0
    0.0000   -1.5000    0.0000 C   0  0  2  0  0  0
  1  2  2  0
  2  3  1  0
  3  4  2  0
  3  5  1  0
  6  5  1  6
  6  7  1  0
  7  8  1  0
  8  9  1  1
  8 10  1  0
 10 11  1  1
 10 12  1  0
 12 13  1  0
 13 14  1  0
 14 15  2  0
 16 14  1  1
 16  8  1  0
 16 17  1  0
 17 18  1  6
 17 19  1  0
 19  2  1  1
 19  6  1  0
M  END
> <Smiles>
C=C1C(=O)O[C@H]2C[C@@]3(C)[C@H](O)CCC(=C)[C@@H]3[C@@H](O)[C@H]12

> <ID>
CHEMBL468246

> <standard_value>
42700

> <IC50_uM>
42.7

> <Activity>
No

> <pIC50>
4.369572125

> <BCI>
0

$$$$

  SciTegic03012415362D

 36 39  0  0  1  0            999 V2000
    7.9466   -9.9983    0.0000 C   0  0
    6.4834   -9.6684    0.0000 O   0  0
    6.0363   -8.2357    0.0000 C   0  0
    7.0533   -7.1331    0.0000 O   0  0
    4.5723   -7.9056    0.0000 C   0  0
    3.5552   -9.0082    0.0000 C   0  0
    4.1252   -6.4729    0.0000 C   0  0
    2.6611   -6.1428    0.0000 C   0  0  2  0  0  0
    1.6441   -7.2454    0.0000 O   0  0
    2.2141   -4.7101    0.0000 C   0  0
    0.7500   -4.3800    0.0000 C   0  0  1  0  0  0
   -0.2670   -5.4825    0.0000 C   0  0
    0.2851   -2.9666    0.0000 C   0  0  2  0  0  0
   -0.6870   -2.7320    0.0000 C   0  0
    1.7758   -3.1329    0.0000 C   0  0
    2.3947   -1.7666    0.0000 C   0  0
    3.8651   -1.4703    0.0000 O   0  0
    1.2990   -0.7500    0.0000 C   0  0
    1.2990    0.7500    0.0000 C   0  0
    2.5981    1.5000    0.0000 C   0  0
    2.5981    3.0000    0.0000 C   0  0
    1.2990    3.7500    0.0000 C   0  0  1  0  0  0
    1.2990    5.2500    0.0000 C   0  0
    2.5800    4.4696    0.0000 C   0  0
    1.2638    6.7496    0.0000 C   0  0
    0.0000    6.0000    0.0000 C   0  0  2  0  0  0
   -0.0001    7.5000    0.0000 O   0  0
   -1.2991    5.2500    0.0000 C   0  0
   -1.2991    3.7500    0.0000 C   0  0
    0.0000    3.0000    0.0000 C   0  0  1  0  0  0
   -1.2991    2.2500    0.0000 C   0  0
    0.0000    1.5000    0.0000 C   0  0  1  0  0  0
   -1.2990    0.7500    0.0000 C   0  0
   -1.2990   -0.7500    0.0000 C   0  0
    0.0000   -1.5000    0.0000 C   0  0  1  0  0  0
   -0.8141   -2.0807    0.0000 C   0  0
  1  2  1  0
  2  3  1  0
  3  4  2  0
  3  5  1  0
  5  6  1  0
  5  7  2  0
  7  8  1  0
  8  9  1  6
  8 10  1  0
 10 11  1  0
 11 12  1  1
 11 13  1  0
 13 14  1  6
 13 15  1  0
 15 16  1  0
 16 17  2  0
 16 18  1  0
 18 19  2  0
 19 20  1  0
 20 21  1  0
 22 21  1  6
 22 23  1  0
 23 24  1  0
 23 25  1  0
 23 26  1  0
 26 27  1  1
 26 28  1  0
 28 29  1  0
 29 30  1  0
 30 22  1  0
 30 31  1  6
 30 32  1  0
 32 19  1  0
 32 33  1  6
 33 34  1  0
 34 35  1  0
 35 18  1  0
 35 13  1  0
 35 36  1  1
M  END
> <Smiles>
COC(=O)/C(C)=C/[C@H](O)C[C@@H](C)[C@]1(C)CC(=O)C2=C3CC[C@H]4C(C)(C)[C@H](O)CC[C@]4(C)[C@H]3CC[C@]21C

> <ID>
CHEMBL487488

> <standard_value>
44700

> <IC50_uM>
44.7

> <Activity>
No

> <pIC50>
4.349692477

> <BCI>
0

$$$$

  SciTegic03012415362D

 23 27  0  0  0  0            999 V2000
    2.5981   -1.5000    0.0000 O   0  0
    1.2990   -0.7500    0.0000 C   0  0
    1.2990    0.7500    0.0000 C   0  0
    0.0000    1.5000    0.0000 C   0  0
    0.0000    3.0008    0.0000 C   0  0
    1.2978    3.7529    0.0000 C   0  0
    1.2954    5.2529    0.0000 C   0  0
   -0.0048    6.0009    0.0000 C   0  0
   -1.3026    5.2488    0.0000 C   0  0
   -1.3002    3.7488    0.0000 C   0  0
   -2.4185    6.2500    0.0000 O   0  0
   -1.8106    7.6213    0.0000 C   0  0
   -0.3186    7.4669    0.0000 O   0  0
   -1.2990    0.7500    0.0000 N   0  0
   -1.2990   -0.7500    0.0000 C   0  0
   -2.5981   -1.5000    0.0000 C   0  0
   -2.5981   -3.0000    0.0000 C   0  0
   -1.2990   -3.7500    0.0000 C   0  0
    0.0000   -3.0000    0.0000 C   0  0
    0.0000   -1.5000    0.0000 C   0  0
   -1.6105   -5.2165    0.0000 O   0  0
   -3.1022   -5.3733    0.0000 C   0  0
   -3.7124   -4.0030    0.0000 O   0  0
  1  2  1  0
  2  3  2  0
  3  4  1  0
  4  5  1  0
  5  6  2  0
  6  7  1  0
  7  8  2  0
  8  9  1  0
  9 10  2  0
 10  5  1  0
  9 11  1  0
 11 12  1  0
 12 13  1  0
 13  8  1  0
  4 14  2  0
 14 15  1  0
 15 16  2  0
 16 17  1  0
 17 18  2  0
 18 19  1  0
 19 20  2  0
 20  2  1  0
 20 15  1  0
 18 21  1  0
 21 22  1  0
 22 23  1  0
 23 17  1  0
M  END
> <Smiles>
Oc1cc(-c2ccc3c(c2)OCO3)nc2cc3c(cc12)OCO3

> <ID>
CHEMBL14691

> <standard_value>
46773.51

> <IC50_uM>
46.77351

> <Activity>
No

> <pIC50>
4.330000038

> <BCI>
0

$$$$

  SciTegic03012415362D

 26 30  0  0  0  0            999 V2000
    4.8086   -5.7146    0.0000 C   0  0
    4.0559   -4.4171    0.0000 O   0  0
    2.5551   -4.4192    0.0000 C   0  0
    1.8073   -5.7196    0.0000 O   0  0
    1.8032   -3.1233    0.0000 C   0  0
    2.4133   -1.7530    0.0000 N   0  0
    1.2990   -0.7500    0.0000 C   0  0
    1.2990    0.7500    0.0000 C   0  0
    0.0000    1.5000    0.0000 C   0  0
   -1.2990    0.7500    0.0000 C   0  0
   -2.7248    1.2135    0.0000 C   0  0
   -3.3339    2.5831    0.0000 C   0  0
   -4.8257    2.7399    0.0000 C   0  0
   -5.7073    1.5263    0.0000 C   0  0
   -5.0972    0.1560    0.0000 C   0  0
   -3.6065    0.0000    0.0000 C   0  0
   -2.7248   -1.2135    0.0000 S   0  0
   -1.2990   -0.7500    0.0000 C   0  0
    0.0000   -1.5000    0.0000 C   0  0
    0.3114   -2.9665    0.0000 C   0  0
   -0.6928   -4.0817    0.0000 C   0  0
   -2.1743   -3.8808    0.0000 C   0  0
   -3.0913   -5.0679    0.0000 C   0  0
   -2.5218   -6.4556    0.0000 C   0  0
   -1.0353   -6.6562    0.0000 C   0  0
   -0.1183   -5.4691    0.0000 C   0  0
  1  2  1  0
  2  3  1  0
  3  4  2  0
  3  5  1  0
  5  6  1  0
  6  7  1  0
  7  8  2  0
  8  9  1  0
  9 10  2  0
 10 11  1  0
 11 12  2  0
 12 13  1  0
 13 14  2  0
 14 15  1  0
 15 16  2  0
 16 11  1  0
 16 17  1  0
 17 18  1  0
 18 10  1  0
 18 19  2  0
 19  7  1  0
 19 20  1  0
 20  5  2  0
 20 21  1  0
 21 22  2  0
 22 23  1  0
 23 24  2  0
 24 25  1  0
 25 26  2  0
 26 21  1  0
M  END
> <Smiles>
COC(=O)c1[nH]c2ccc3c4ccccc4sc3c2c1-c1ccccc1

> <ID>
CHEMBL493803

> <standard_value>
50000

> <IC50_uM>
50

> <Activity>
No

> <pIC50>
4.301029996

> <BCI>
0

$$$$

  SciTegic03012415362D

 23 25  0  0  0  0            999 V2000
    2.5875   -5.9994    0.0000 C   0  0
    3.8888   -5.2533    0.0000 O   0  0
    3.8943   -3.7525    0.0000 C   0  0
    5.1945   -3.0045    0.0000 C   0  0
    5.1969   -1.5045    0.0000 C   0  0
    3.8991   -0.7525    0.0000 C   0  0
    2.5987   -1.5004    0.0000 C   0  0
    1.2990   -0.7500    0.0000 C   0  0
    1.2990    0.7500    0.0000 C   0  0
    0.0000    1.5000    0.0000 C   0  0
    0.0000    3.0000    0.0000 O   0  0
   -1.2990    0.7500    0.0000 C   0  0
   -2.5981    1.5000    0.0000 C   0  0
   -3.8971    0.7500    0.0000 C   0  0
   -5.1953    1.5031    0.0000 O   0  0
   -5.1932    3.0031    0.0000 C   0  0
   -3.8971   -0.7500    0.0000 C   0  0
   -5.1953   -1.5031    0.0000 O   0  0
   -5.1932   -3.0031    0.0000 C   0  0
   -2.5981   -1.5000    0.0000 C   0  0
   -1.2990   -0.7500    0.0000 C   0  0
    0.0000   -1.5000    0.0000 N   0  0
    2.5965   -3.0004    0.0000 C   0  0
  1  2  1  0
  2  3  1  0
  3  4  2  0
  4  5  1  0
  5  6  2  0
  6  7  1  0
  7  8  1  0
  8  9  2  0
  9 10  1  0
 10 11  1  0
 10 12  2  0
 12 13  1  0
 13 14  2  0
 14 15  1  0
 15 16  1  0
 14 17  1  0
 17 18  1  0
 18 19  1  0
 17 20  2  0
 20 21  1  0
 21 12  1  0
 21 22  2  0
 22  8  1  0
  7 23  2  0
 23  3  1  0
M  END
> <Smiles>
COc1cccc(-c2cc(O)c3cc(OC)c(OC)cc3n2)c1

> <ID>
CHEMBL14337

> <standard_value>
50118.72

> <IC50_uM>
50.11872

> <Activity>
No

> <pIC50>
4.300000029

> <BCI>
0

$$$$

  SciTegic03012415362D

 25 27  0  0  0  0            999 V2000
    2.5981   -1.5000    0.0000 C   0  0
    1.2990   -0.7500    0.0000 C   0  0
    1.2990    0.7500    0.0000 N   0  0
    0.0000    1.5000    0.0000 C   0  0
    0.0000    3.0000    0.0000 C   0  0
   -1.2991    3.7500    0.0000 C   0  0
   -2.5981    3.0000    0.0000 C   0  0
   -2.5981    1.5000    0.0000 C   0  0
   -1.2990    0.7500    0.0000 C   0  0
   -1.2990   -0.7500    0.0000 C   0  0
   -2.5981   -1.5000    0.0000 O   0  0
    0.0000   -1.5000    0.0000 N   0  0
    0.0031   -3.0008    0.0000 N   0  0
    1.3039   -3.7494    0.0000 C   0  0
    2.6016   -2.9971    0.0000 O   0  0
    1.3070   -5.2502    0.0000 C   0  0
    0.0093   -6.0025    0.0000 Cl  0  0
    2.6078   -5.9988    0.0000 C   0  0
    2.6109   -7.4996    0.0000 C   0  0
    3.9100   -8.2497    0.0000 C   0  0
    3.9100   -9.7497    0.0000 C   0  0
    2.6110  -10.4997    0.0000 C   0  0
    2.6110  -11.9997    0.0000 Cl  0  0
    1.3119   -9.7497    0.0000 C   0  0
    1.3119   -8.2497    0.0000 C   0  0
  1  2  1  0
  2  3  2  0
  3  4  1  0
  4  5  2  0
  5  6  1  0
  6  7  2  0
  7  8  1  0
  8  9  2  0
  9  4  1  0
  9 10  1  0
 10 11  2  0
 10 12  1  0
 12  2  1  0
 12 13  1  0
 13 14  1  0
 14 15  2  0
 14 16  1  0
 16 17  1  0
 16 18  2  0
 18 19  1  0
 19 20  2  0
 20 21  1  0
 21 22  2  0
 22 23  1  0
 22 24  1  0
 24 25  2  0
 25 19  1  0
M  END
> <Smiles>
Cc1nc2ccccc2c(=O)n1NC(=O)/C(Cl)=C/c1ccc(Cl)cc1

> <ID>
CHEMBL2297607

> <standard_value>
50800

> <IC50_uM>
50.8

> <Activity>
No

> <pIC50>
4.294136288

> <BCI>
0

$$$$

  SciTegic03012415362D

 21 22  0  0  0  0            999 V2000
    6.4933    0.7455    0.0000 C   0  0
    6.4928   -0.7545    0.0000 C   0  0
    5.1933   -1.5053    0.0000 O   0  0
    5.1929   -3.0062    0.0000 C   0  0
    6.4919   -3.7562    0.0000 O   0  0
    3.8933   -3.7570    0.0000 C   0  0  3  0  0  0
    2.5951   -3.0039    0.0000 C   0  0
    2.5973   -1.5031    0.0000 C   0  0
    1.2990   -0.7500    0.0000 C   0  0
    1.2990    0.7500    0.0000 C   0  0
    0.0000    1.5000    0.0000 C   0  0
   -1.2990    0.7500    0.0000 C   0  0
   -2.5981    1.5000    0.0000 N   0  0
   -1.2990   -0.7500    0.0000 C   0  0
    0.0000   -1.5000    0.0000 C   0  0
    3.8912   -5.2578    0.0000 C   0  0
    5.1876   -6.0124    0.0000 C   0  0
    5.1824   -7.5124    0.0000 C   0  0
    3.8808   -8.2579    0.0000 C   0  0
    2.5844   -7.5034    0.0000 C   0  0
    2.5895   -6.0034    0.0000 C   0  0
  1  2  1  0
  2  3  1  0
  3  4  1  0
  4  5  2  0
  4  6  1  0
  6  7  1  4
  7  8  1  0
  8  9  1  0
  9 10  2  0
 10 11  1  0
 11 12  2  0
 12 13  1  0
 12 14  1  0
 14 15  2  0
 15  9  1  0
  6 16  1  0
 16 17  2  0
 17 18  1  0
 18 19  2  0
 19 20  1  0
 20 21  2  0
 21 16  1  0
M  END
> <Smiles>
CCOC(=O)C(CCc1ccc(N)cc1)c1ccccc1

> <ID>
CHEMBL1774711

> <standard_value>
51800

> <IC50_uM>
51.8

> <Activity>
No

> <pIC50>
4.28567024

> <BCI>
0

$$$$

  SciTegic03012415362D

 19 21  0  0  1  0            999 V2000
   -0.6923   -4.0811    0.0000 C   0  0
    0.3114   -2.9665    0.0000 C   0  0
    1.8032   -3.1233    0.0000 C   0  0
    2.5532   -4.4223    0.0000 O   0  0
    2.4133   -1.7530    0.0000 O   0  0
    1.2990   -0.7500    0.0000 C   0  0  1  0  0  0
    1.2990    0.7500    0.0000 C   0  0
    0.0000    1.5000    0.0000 C   0  0  2  0  0  0
    1.2990    2.2500    0.0000 C   0  0
    0.0000    3.0000    0.0000 C   0  0  2  0  0  0
    1.2990    3.7500    0.0000 O   0  0
   -1.2991    3.7500    0.0000 C   0  0
   -2.5981    3.0000    0.0000 C   0  0
   -2.5981    1.5000    0.0000 C   0  0
   -3.8971    0.7500    0.0000 C   0  0
   -1.2990    0.7500    0.0000 C   0  0  2  0  0  0
   -1.2990   -0.7500    0.0000 C   0  0  1  0  0  0
   -2.5981   -1.5000    0.0000 O   0  0
    0.0000   -1.5000    0.0000 C   0  0  2  0  0  0
  1  2  2  0
  2  3  1  0
  3  4  2  0
  3  5  1  0
  6  5  1  6
  6  7  1  0
  7  8  1  0
  8  9  1  6
  8 10  1  0
 10 11  1  1
 10 12  1  0
 12 13  1  0
 13 14  1  0
 14 15  2  0
 16 14  1  1
 16  8  1  0
 16 17  1  0
 17 18  1  6
 17 19  1  0
 19  2  1  1
 19  6  1  0
M  END
> <Smiles>
C=C1C(=O)O[C@H]2C[C@]3(C)[C@H](O)CCC(=C)[C@@H]3[C@@H](O)[C@H]12

> <ID>
CHEMBL1092158

> <standard_value>
52300

> <IC50_uM>
52.3

> <Activity>
No

> <pIC50>
4.281498311

> <BCI>
0

$$$$

  SciTegic03012415362D

 35 41  0  0  0  0            999 V2000
   -4.1318   -4.3419    0.0000 C   0  0
   -2.7284   -4.8714    0.0000 C   0  0
   -1.5681   -3.9207    0.0000 C   0  0
   -1.8112   -2.4405    0.0000 C   0  0
   -0.6522   -1.4871    0.0000 C   0  0  3  0  0  0
    0.7528   -2.0145    0.0000 C   0  0
    1.9130   -1.0635    0.0000 C   0  0
    3.3166   -1.5926    0.0000 C   0  0
    3.5601   -3.0727    0.0000 C   0  0
    4.9644   -3.6021    0.0000 N   0  0
    6.1261   -2.6529    0.0000 C   0  0
    7.5288   -3.1843    0.0000 C   0  0
    7.7700   -4.6647    0.0000 N   0  0
    9.1735   -5.1963    0.0000 C   0  0
   10.3366   -4.2490    0.0000 C   0  0
   11.7385   -4.7826    0.0000 C   0  0
   11.9774   -6.2634    0.0000 C   0  0
   10.8144   -7.2108    0.0000 C   0  0
    9.4125   -6.6772    0.0000 C   0  0
    6.6085   -5.6139    0.0000 C   0  0
    5.2058   -5.0826    0.0000 C   0  0
    2.4001   -4.0237    0.0000 C   0  0
    0.9966   -3.4946    0.0000 C   0  0
   -0.8987    0.0000    0.0000 C   0  0  3  0  0  0
   -2.0541   -1.3755    0.0000 C   0  0
   -0.6052   -0.9721    0.0000 C   0  0  3  0  0  0
   -0.6052    0.5686    0.0000 C   0  0
    0.4035    1.7790    0.0000 C   0  0  3  0  0  0
    1.7790    1.2105    0.0000 C   0  0
    1.7607   -0.2751    0.0000 C   0  0  3  0  0  0
    0.7703   -1.5223    0.0000 C   0  0
    0.3852   -0.6052    0.0000 C   0  0
   -0.8987    1.3205    0.0000 C   0  0
   -3.2147   -1.9111    0.0000 C   0  0
   -4.3750   -2.8618    0.0000 C   0  0
  1  2  2  0
  2  3  1  0
  3  4  2  0
  5  4  1  4
  5  6  1  0
  6  7  2  0
  7  8  1  0
  8  9  2  0
  9 10  1  0
 10 11  1  0
 11 12  1  0
 12 13  1  0
 13 14  1  0
 14 15  1  0
 15 16  1  0
 16 17  1  0
 17 18  1  0
 18 19  1  0
 19 14  1  0
 13 20  1  0
 20 21  1  0
 21 10  1  0
  9 22  1  0
 22 23  2  0
 23  6  1  0
  5 24  1  0
 24 25  1  4
 26 25  1  4
 26 27  1  0
 28 27  1  4
 28 29  1  0
 30 29  1  4
 30 31  1  0
 31 26  1  0
 30 32  1  0
 32 24  1  0
 28 33  1  0
 33 24  1  0
  4 34  1  0
 34 35  2  0
 35  1  1  0
M  END
> <Smiles>
c1ccc(C(c2ccc(N3CCN(C4CCCCC4)CC3)cc2)C23CC4CC(CC(C4)C2)C3)cc1

> <ID>
CHEMBL2023825

> <standard_value>
53070

> <IC50_uM>
53.07

> <Activity>
No

> <pIC50>
4.275150912

> <BCI>
0

$$$$

  SciTegic03012415362D

 21 23  0  0  0  0            999 V2000
    5.5608   -2.8298    0.0000 C   0  0
    5.2526   -1.3618    0.0000 C   0  0
    6.2524   -0.2436    0.0000 C   0  0
    5.4979    1.0528    0.0000 C   0  0
    4.0317    0.7359    0.0000 S   0  0
    3.8990   -0.7455    0.0000 C   0  0
    2.6003   -1.4977    0.0000 C   0  0
    1.2990   -0.7500    0.0000 C   0  0
    1.2990    0.7500    0.0000 C   0  0
    0.0000    1.5000    0.0000 N   0  0
   -1.2990    0.7500    0.0000 C   0  0
   -1.2990   -0.7500    0.0000 C   0  0
   -2.6003   -1.4978    0.0000 C   0  0
   -3.8990   -0.7455    0.0000 C   0  0
   -4.0317    0.7359    0.0000 S   0  0
   -5.4979    1.0528    0.0000 C   0  0
   -6.2524   -0.2436    0.0000 C   0  0
   -5.2525   -1.3618    0.0000 C   0  0
   -5.5608   -2.8298    0.0000 C   0  0
    0.0000   -1.5000    0.0000 C   0  0
    0.0000   -3.0000    0.0000 O   0  0
  1  2  1  0
  2  3  1  0
  3  4  2  0
  4  5  1  0
  5  6  1  0
  6  2  2  0
  6  7  1  0
  7  8  2  0
  8  9  1  0
  9 10  1  0
 10 11  1  0
 11 12  1  0
 12 13  2  0
 13 14  1  0
 14 15  1  0
 15 16  1  0
 16 17  2  0
 17 18  1  0
 18 14  2  0
 18 19  1  0
 12 20  1  0
 20  8  1  0
 20 21  2  0
M  END
> <Smiles>
Cc1ccsc1/C=C1\CNC/C(=C\c2sccc2C)C1=O

> <ID>
CHEMBL1795868

> <standard_value>
53800

> <IC50_uM>
53.8

> <Activity>
No

> <pIC50>
4.269217724

> <BCI>
0

$$$$

  SciTegic03012415362D

 19 19  0  0  0  0            999 V2000
    6.4983   -0.7414    0.0000 C   0  0
    5.2003   -1.4932    0.0000 C   0  0
    5.2029   -2.9932    0.0000 C   0  0
    3.8990   -0.7455    0.0000 C   0  0
    2.6003   -1.4977    0.0000 C   0  0
    1.2990   -0.7500    0.0000 C   0  0
    1.2990    0.7500    0.0000 C   0  0
    0.0000    1.5000    0.0000 C   0  0
    0.0000    3.0000    0.0000 O   0  0
   -1.2990    0.7500    0.0000 C   0  0
   -1.2990   -0.7500    0.0000 C   0  0
   -2.6003   -1.4978    0.0000 C   0  0
   -3.8990   -0.7455    0.0000 C   0  0
   -3.8978    0.7553    0.0000 C   0  0
   -2.5980    1.5039    0.0000 C   0  0
   -3.8959    2.2553    0.0000 C   0  0
   -5.1958    1.5072    0.0000 O   0  0
    0.0000   -1.5000    0.0000 C   0  0
    0.0000   -3.0000    0.0000 O   0  0
  1  2  1  0
  2  3  1  0
  2  4  2  0
  4  5  1  0
  5  6  1  0
  6  7  2  0
  7  8  1  0
  8  9  1  0
  8 10  2  0
 10 11  1  0
 11 12  1  0
 12 13  2  0
 13 14  1  0
 14 15  1  0
 14 16  1  0
 14 17  1  0
 11 18  2  0
 18  6  1  0
 18 19  1  0
M  END
> <Smiles>
CC(C)=CCc1cc(O)cc(/C=C\C(C)(C)O)c1O

> <ID>
CHEMBL1773905

> <standard_value>
55000

> <IC50_uM>
55

> <Activity>
No

> <pIC50>
4.259637311

> <BCI>
0

$$$$

  SciTegic03012415362D

 22 24  0  0  0  0            999 V2000
    2.5981   -1.5000    0.0000 C   0  0
    1.2990   -0.7500    0.0000 C   0  0
    1.2990    0.7500    0.0000 N   0  0
    0.0000    1.5000    0.0000 C   0  0
    0.0000    3.0000    0.0000 C   0  0
   -1.2991    3.7500    0.0000 C   0  0
   -2.5981    3.0000    0.0000 C   0  0
   -2.5981    1.5000    0.0000 C   0  0
   -1.2990    0.7500    0.0000 C   0  0
   -1.2990   -0.7500    0.0000 C   0  0
   -2.5981   -1.5000    0.0000 O   0  0
    0.0000   -1.5000    0.0000 N   0  0
    0.0031   -3.0008    0.0000 N   0  0
    1.3039   -3.7494    0.0000 C   0  0
    2.6016   -2.9971    0.0000 S   0  0
    1.3070   -5.2502    0.0000 N   0  0
    2.6078   -5.9988    0.0000 C   0  0
    2.6131   -7.4988    0.0000 C   0  0
    3.9147   -8.2443    0.0000 C   0  0
    5.2112   -7.4898    0.0000 C   0  0
    5.2060   -5.9898    0.0000 C   0  0
    3.9044   -5.2443    0.0000 C   0  0
  1  2  1  0
  2  3  2  0
  3  4  1  0
  4  5  2  0
  5  6  1  0
  6  7  2  0
  7  8  1  0
  8  9  2  0
  9  4  1  0
  9 10  1  0
 10 11  2  0
 10 12  1  0
 12  2  1  0
 12 13  1  0
 13 14  1  0
 14 15  2  0
 14 16  1  0
 16 17  1  0
 17 18  2  0
 18 19  1  0
 19 20  2  0
 20 21  1  0
 21 22  2  0
 22 17  1  0
M  END
> <Smiles>
Cc1nc2ccccc2c(=O)n1NC(=S)Nc1ccccc1

> <ID>
CHEMBL1979223

> <standard_value>
56800

> <IC50_uM>
56.8

> <Activity>
No

> <pIC50>
4.245651664

> <BCI>
0

$$$$

  SciTegic03012415362D

 36 41  0  0  1  0            999 V2000
    3.1882    2.6402    0.0000 O   0  0
    2.7248    1.2135    0.0000 C   0  0
    3.6065    0.0000    0.0000 O   0  0
    2.7248   -1.2135    0.0000 C   0  0
    1.2990   -0.7500    0.0000 C   0  0
    1.2990    0.7500    0.0000 C   0  0
    0.0000    1.5000    0.0000 C   0  0
   -1.2990    0.7500    0.0000 C   0  0
   -2.5981    1.5000    0.0000 C   0  0
   -3.8971    0.7500    0.0000 C   0  0
   -3.8971   -0.7500    0.0000 C   0  0
   -5.1961   -1.5000    0.0000 O   0  0
   -2.5981   -1.5000    0.0000 C   0  0
   -2.6011   -3.0008    0.0000 O   0  0
   -3.9020   -3.7494    0.0000 C   0  0  2  0  0  0
   -5.1985   -2.9950    0.0000 O   0  0
   -6.5001   -3.7405    0.0000 C   0  0  2  0  0  0
   -7.7957   -2.9829    0.0000 C   0  0
   -7.7884   -1.4829    0.0000 O   0  0
   -6.5053   -5.2405    0.0000 C   0  0  1  0  0  0
   -7.8069   -5.9860    0.0000 O   0  0
   -5.2089   -5.9949    0.0000 C   0  0  2  0  0  0
   -5.2140   -7.4949    0.0000 O   0  0
   -3.9072   -5.2494    0.0000 C   0  0  1  0  0  0
   -2.6108   -6.0039    0.0000 O   0  0
   -1.2990   -0.7500    0.0000 C   0  0
    0.0000   -1.5000    0.0000 C   0  0
    0.0000   -3.0008    0.0000 C   0  0
   -1.2978   -3.7529    0.0000 C   0  0
   -1.2955   -5.2529    0.0000 C   0  0
    0.0048   -6.0009    0.0000 C   0  0
    1.3026   -5.2488    0.0000 C   0  0
    1.3002   -3.7488    0.0000 C   0  0
    2.4185   -6.2500    0.0000 O   0  0
    1.8106   -7.6213    0.0000 C   0  0
    0.3185   -7.4669    0.0000 O   0  0
  1  2  2  0
  2  3  1  0
  3  4  1  0
  4  5  1  0
  5  6  2  0
  6  2  1  0
  6  7  1  0
  7  8  2  0
  8  9  1  0
  9 10  2  0
 10 11  1  0
 11 12  1  0
 11 13  2  0
 13 14  1  0
 15 14  1  1
 15 16  1  0
 16 17  1  0
 17 18  1  1
 18 19  1  0
 17 20  1  0
 20 21  1  6
 20 22  1  0
 22 23  1  1
 22 24  1  0
 24 15  1  0
 24 25  1  6
 13 26  1  0
 26  8  1  0
 26 27  2  0
 27  5  1  0
 27 28  1  0
 28 29  2  0
 29 30  1  0
 30 31  2  0
 31 32  1  0
 32 33  2  0
 33 28  1  0
 32 34  1  0
 34 35  1  0
 35 36  1  0
 36 31  1  0
M  END
> <Smiles>
O=C1OCc2c1cc1ccc(O)c(O[C@@H]3O[C@H](CO)[C@@H](O)[C@H](O)[C@H]3O)c1c2-c1ccc2c(c1)OCO2

> <ID>
CHEMBL478583

> <standard_value>
57100

> <IC50_uM>
57.1

> <Activity>
No

> <pIC50>
4.243363892

> <BCI>
0

$$$$

  SciTegic03012415362D

 20 21  0  0  0  0            999 V2000
    2.5983   -3.0004    0.0000 N   0  0
    2.5988   -1.5004    0.0000 S   0  0
    3.8983   -0.7512    0.0000 O   0  0
    3.8975   -2.2510    0.0000 O   0  0
    1.2990   -0.7500    0.0000 C   0  0
    1.2990    0.7500    0.0000 C   0  0
    0.0000    1.5000    0.0000 C   0  0
   -1.2990    0.7500    0.0000 C   0  0
   -2.6003    1.4977    0.0000 N   0  0
   -3.8990    0.7455    0.0000 S   0  0
   -5.2003    1.4932    0.0000 C   0  0
   -5.2029    2.9932    0.0000 S   0  0
   -6.4990    0.7409    0.0000 N   0  0
   -7.8007    1.4864    0.0000 C   0  0
   -9.0971    0.7319    0.0000 C   0  0
   -9.0919   -0.7681    0.0000 O   0  0
   -7.7903   -1.5136    0.0000 C   0  0
   -6.4939   -0.7591    0.0000 C   0  0
   -1.2990   -0.7500    0.0000 C   0  0
    0.0000   -1.5000    0.0000 C   0  0
  1  2  1  0
  2  3  2  0
  2  4  2  0
  2  5  1  0
  5  6  2  0
  6  7  1  0
  7  8  2  0
  8  9  1  0
  9 10  1  0
 10 11  1  0
 11 12  2  0
 11 13  1  0
 13 14  1  0
 14 15  1  0
 15 16  1  0
 16 17  1  0
 17 18  1  0
 18 13  1  0
  8 19  1  0
 19 20  2  0
 20  5  1  0
M  END
> <Smiles>
NS(=O)(=O)c1ccc(NSC(=S)N2CCOCC2)cc1

> <ID>
CHEMBL13929

> <standard_value>
58000

> <IC50_uM>
58

> <Activity>
No

> <pIC50>
4.236572006

> <BCI>
0

$$$$

  SciTegic03012415362D

 22 24  0  0  0  0            999 V2000
    2.5981   -1.5000    0.0000 N   0  0
    1.2990   -0.7500    0.0000 C   0  0
    1.2990    0.7500    0.0000 C   0  0
    0.0000    1.5000    0.0000 C   0  0
   -1.2990    0.7500    0.0000 C   0  0
   -2.5981    1.5000    0.0000 N   0  0
   -3.8971    0.7500    0.0000 C   0  0
   -5.1968    1.5003    0.0000 C   0  0
   -5.1993    3.0004    0.0000 C   0  0
   -6.4995    3.7483    0.0000 C   0  0
   -7.7974    2.9963    0.0000 C   0  0
   -7.7950    1.4963    0.0000 C   0  0
   -9.0935    0.7438    0.0000 C   0  0
  -10.3942    1.4909    0.0000 F   0  0
   -9.0907   -0.7562    0.0000 F   0  0
  -10.3910   -0.0089    0.0000 F   0  0
   -6.4948    0.7483    0.0000 C   0  0
   -3.8971   -0.7500    0.0000 C   0  0
   -2.5981   -1.5000    0.0000 C   0  0
   -2.5981   -3.0000    0.0000 O   0  0
   -1.2990   -0.7500    0.0000 C   0  0
    0.0000   -1.5000    0.0000 C   0  0
  1  2  1  0
  2  3  2  0
  3  4  1  0
  4  5  2  0
  5  6  1  0
  6  7  2  0
  7  8  1  0
  8  9  2  0
  9 10  1  0
 10 11  2  0
 11 12  1  0
 12 13  1  0
 13 14  1  0
 13 15  1  0
 13 16  1  0
 12 17  2  0
 17  8  1  0
  7 18  1  0
 18 19  2  0
 19 20  1  0
 19 21  1  0
 21  5  1  0
 21 22  2  0
 22  2  1  0
M  END
> <Smiles>
Nc1ccc2nc(-c3cccc(C(F)(F)F)c3)cc(O)c2c1

> <ID>
CHEMBL114789

> <standard_value>
58884.37

> <IC50_uM>
58.88437

> <Activity>
No

> <pIC50>
4.229999967

> <BCI>
0

$$$$

  SciTegic03012415362D

 21 21  0  0  0  0            999 V2000
    3.8988   -3.7512    0.0000 C   0  0
    2.5997   -3.0012    0.0000 C   0  0
    2.5988   -1.5004    0.0000 C   0  0
    3.8976   -0.7500    0.0000 C   0  0
    3.8982   -2.2498    0.0000 C   0  0
    1.2990   -0.7500    0.0000 C   0  0
    1.2990    0.7500    0.0000 C   0  0
    0.0000    1.5000    0.0000 C   0  0
    0.0000    3.0000    0.0000 O   0  0
   -1.2990    0.7500    0.0000 C   0  0
   -2.6003    1.4977    0.0000 C   0  0  3  0  0  0
   -2.6030    2.9977    0.0000 O   0  0
   -3.8990    0.7455    0.0000 C   0  0  3  0  0  0
   -3.8964   -0.7545    0.0000 O   0  0
   -5.2003    1.4932    0.0000 C   0  0
   -5.2029    2.9932    0.0000 C   0  0
   -6.5006    2.2411    0.0000 C   0  0
   -6.4983    0.7413    0.0000 O   0  0
   -1.2990   -0.7500    0.0000 C   0  0
    0.0000   -1.5000    0.0000 C   0  0
    0.0000   -3.0000    0.0000 O   0  0
  1  2  2  0
  2  3  1  0
  3  4  1  0
  3  5  1  0
  3  6  1  0
  6  7  2  0
  7  8  1  0
  8  9  1  0
  8 10  2  0
 10 11  1  0
 11 12  1  4
 11 13  1  0
 13 14  1  4
 13 15  1  0
 15 16  1  0
 15 17  1  0
 15 18  1  0
 10 19  1  0
 19 20  2  0
 20  6  1  0
 20 21  1  0
M  END
> <Smiles>
C=CC(C)(C)c1cc(O)c(C(O)C(O)C(C)(C)O)cc1O

> <ID>
CHEMBL1773908

> <standard_value>
59000

> <IC50_uM>
59

> <Activity>
No

> <pIC50>
4.229147988

> <BCI>
0

$$$$

  SciTegic03012415362D

 20 20  0  0  0  0            999 V2000
   -0.8232   -7.7257    0.0000 C   0  0
   -0.2098   -6.3569    0.0000 C   0  0
    1.2830   -6.2026    0.0000 C   0  0
    1.8954   -4.8324    0.0000 N   0  0
    3.3881   -4.6768    0.0000 C   0  0
    4.2684   -5.8913    0.0000 O   0  0
    4.0005   -3.3066    0.0000 N   0  0
    5.4907   -3.1512    0.0000 C   0  0
    6.2444   -1.8543    0.0000 N   0  0
    7.7107   -2.1704    0.0000 C   0  0
    7.8632   -3.6626    0.0000 C   0  0
    6.4912   -4.2688    0.0000 S   0  0
    2.1626   -7.4186    0.0000 C   0  0
    1.5505   -8.7881    0.0000 F   0  0
    3.6547   -7.2645    0.0000 F   0  0
    3.0423   -8.6336    0.0000 F   0  0
    0.3887   -4.9612    0.0000 C   0  0
    1.0036   -3.5930    0.0000 F   0  0
   -0.4886   -3.7445    0.0000 F   0  0
   -1.1037   -5.1124    0.0000 F   0  0
  1  2  1  0
  2  3  1  0
  3  4  1  0
  4  5  1  0
  5  6  2  0
  5  7  1  0
  7  8  1  0
  8  9  2  0
  9 10  1  0
 10 11  2  0
 11 12  1  0
 12  8  1  0
  3 13  1  0
 13 14  1  0
 13 15  1  0
 13 16  1  0
  3 17  1  0
 17 18  1  0
 17 19  1  0
 17 20  1  0
M  END
> <Smiles>
CCC(NC(=O)Nc1nccs1)(C(F)(F)F)C(F)(F)F

> <ID>
CHEMBL573290

> <standard_value>
60255.96

> <IC50_uM>
60.25596

> <Activity>
No

> <pIC50>
4.21999999

> <BCI>
0

$$$$

  SciTegic03012415362D

 29 32  0  0  0  0            999 V2000
    2.5981   -1.5000    0.0000 C   0  0
    1.2990   -0.7500    0.0000 C   0  0
    1.2990    0.7500    0.0000 N   0  0
    0.0000    1.5000    0.0000 C   0  0
    0.0000    3.0000    0.0000 C   0  0
   -1.2991    3.7500    0.0000 C   0  0
   -2.5981    3.0000    0.0000 C   0  0
   -2.5981    1.5000    0.0000 C   0  0
   -1.2990    0.7500    0.0000 C   0  0
   -1.2990   -0.7500    0.0000 C   0  0
   -2.5981   -1.5000    0.0000 O   0  0
    0.0000   -1.5000    0.0000 N   0  0
    0.0031   -3.0008    0.0000 N   0  0
    1.3039   -3.7494    0.0000 C   0  0
    2.6532   -3.1236    0.0000 C   0  0
    3.6607   -4.2349    0.0000 S   0  0
    2.9152   -5.5365    0.0000 C   0  0
    3.5322   -6.9018    0.0000 C   0  0
    5.0256   -7.0514    0.0000 C   0  0
    6.5181   -7.2008    0.0000 N   0  0
    2.6564   -8.1206    0.0000 C   0  0
    1.7811   -9.3387    0.0000 N   0  0
    1.4469   -5.2297    0.0000 N   0  0
    0.3292   -6.2312    0.0000 C   0  0
   -1.1235   -5.8791    0.0000 C   0  0
   -2.1577   -6.9656    0.0000 C   0  0
   -1.7339   -8.4045    0.0000 C   0  0
   -0.2758   -8.7569    0.0000 C   0  0
    0.7584   -7.6704    0.0000 C   0  0
  1  2  1  0
  2  3  2  0
  3  4  1  0
  4  5  2  0
  5  6  1  0
  6  7  2  0
  7  8  1  0
  8  9  2  0
  9  4  1  0
  9 10  1  0
 10 11  2  0
 10 12  1  0
 12  2  1  0
 12 13  1  0
 13 14  1  0
 14 15  2  0
 15 16  1  0
 16 17  1  0
 17 18  2  0
 18 19  1  0
 19 20  3  0
 18 21  1  0
 21 22  3  0
 17 23  1  0
 23 14  1  0
 23 24  1  0
 24 25  2  0
 25 26  1  0
 26 27  2  0
 27 28  1  0
 28 29  2  0
 29 24  1  0
M  END
> <Smiles>
Cc1nc2ccccc2c(=O)n1NC1=CSC(=C(C#N)C#N)N1c1ccccc1

> <ID>
CHEMBL2297608

> <standard_value>
60400

> <IC50_uM>
60.4

> <Activity>
No

> <pIC50>
4.218963061

> <BCI>
0

$$$$

  SciTegic03012415362D

 17 19  0  0  0  0            999 V2000
    2.5981   -1.5000    0.0000 O   0  0
    1.2990   -0.7500    0.0000 C   0  0
    1.2990    0.7500    0.0000 C   0  0
    2.5981    1.5000    0.0000 C   0  0
    2.5981    3.0000    0.0000 C   0  0
    1.2990    3.7500    0.0000 C   0  0
    0.0000    3.0000    0.0000 C   0  0
    0.0000    1.5000    0.0000 C   0  0
   -1.2990    0.7500    0.0000 O   0  0
   -1.2990   -0.7500    0.0000 C   0  0
   -2.5981   -1.5000    0.0000 C   0  0
   -2.5981   -3.0000    0.0000 C   0  0
   -3.8971   -3.7500    0.0000 O   0  0
   -1.2990   -3.7500    0.0000 C   0  0
    0.0000   -3.0000    0.0000 C   0  0
    1.2991   -3.7500    0.0000 O   0  0
    0.0000   -1.5000    0.0000 C   0  0
  1  2  2  0
  2  3  1  0
  3  4  2  0
  4  5  1  0
  5  6  2  0
  6  7  1  0
  7  8  2  0
  8  3  1  0
  8  9  1  0
  9 10  1  0
 10 11  2  0
 11 12  1  0
 12 13  1  0
 12 14  2  0
 14 15  1  0
 15 16  1  0
 15 17  2  0
 17  2  1  0
 17 10  1  0
M  END
> <Smiles>
O=c1c2ccccc2oc2cc(O)cc(O)c12

> <ID>
CHEMBL388525

> <standard_value>
61400

> <IC50_uM>
61.4

> <Activity>
No

> <pIC50>
4.211831629

> <BCI>
0

$$$$

  SciTegic03012415362D

 24 27  0  0  0  0            999 V2000
    7.7938   -3.0045    0.0000 C   0  0
    6.4947   -3.7543    0.0000 O   0  0
    5.1945   -3.0045    0.0000 C   0  0
    3.8943   -3.7525    0.0000 C   0  0
    2.5965   -3.0004    0.0000 C   0  0
    2.5987   -1.5004    0.0000 C   0  0
    1.2990   -0.7500    0.0000 C   0  0
    1.2990    0.7500    0.0000 C   0  0
    0.0000    1.5000    0.0000 C   0  0
    0.0000    3.0000    0.0000 O   0  0
   -1.2990    0.7500    0.0000 C   0  0
   -2.5981    1.5000    0.0000 C   0  0
   -3.8971    0.7500    0.0000 C   0  0
   -3.8971   -0.7500    0.0000 C   0  0
   -2.5981   -1.5000    0.0000 C   0  0
   -1.2990   -0.7500    0.0000 C   0  0
    0.0000   -1.5000    0.0000 N   0  0
   -5.3228   -1.2136    0.0000 O   0  0
   -6.2045    0.0000    0.0000 C   0  0
   -5.3229    1.2135    0.0000 O   0  0
    3.8991   -0.7525    0.0000 C   0  0
    3.9046    0.7483    0.0000 O   0  0
    5.2059    1.4944    0.0000 C   0  0
    5.1969   -1.5045    0.0000 C   0  0
  1  2  1  0
  2  3  1  0
  3  4  2  0
  4  5  1  0
  5  6  2  0
  6  7  1  0
  7  8  2  0
  8  9  1  0
  9 10  1  0
  9 11  2  0
 11 12  1  0
 12 13  2  0
 13 14  1  0
 14 15  2  0
 15 16  1  0
 16 11  1  0
 16 17  2  0
 17  7  1  0
 14 18  1  0
 18 19  1  0
 19 20  1  0
 20 13  1  0
  6 21  1  0
 21 22  1  0
 22 23  1  0
 21 24  2  0
 24  3  1  0
M  END
> <Smiles>
COc1ccc(-c2cc(O)c3cc4c(cc3n2)OCO4)c(OC)c1

> <ID>
CHEMBL14526

> <standard_value>
63095.73

> <IC50_uM>
63.09573

> <Activity>
No

> <pIC50>
4.200000031

> <BCI>
0

$$$$

  SciTegic03012415362D

 22 25  0  0  0  0            999 V2000
    5.2059    1.4944    0.0000 C   0  0
    3.9046    0.7483    0.0000 O   0  0
    3.8991   -0.7525    0.0000 C   0  0
    5.1969   -1.5045    0.0000 C   0  0
    5.1945   -3.0045    0.0000 C   0  0
    3.8943   -3.7525    0.0000 C   0  0
    2.5965   -3.0004    0.0000 C   0  0
    2.5987   -1.5004    0.0000 C   0  0
    1.2990   -0.7500    0.0000 C   0  0
    1.2990    0.7500    0.0000 C   0  0
    0.0000    1.5000    0.0000 C   0  0
    0.0000    3.0000    0.0000 O   0  0
   -1.2990    0.7500    0.0000 C   0  0
   -2.5981    1.5000    0.0000 C   0  0
   -3.8971    0.7500    0.0000 C   0  0
   -3.8971   -0.7500    0.0000 C   0  0
   -2.5981   -1.5000    0.0000 C   0  0
   -1.2990   -0.7500    0.0000 C   0  0
    0.0000   -1.5000    0.0000 N   0  0
   -5.3228   -1.2136    0.0000 O   0  0
   -6.2045    0.0000    0.0000 C   0  0
   -5.3229    1.2135    0.0000 O   0  0
  1  2  1  0
  2  3  1  0
  3  4  2  0
  4  5  1  0
  5  6  2  0
  6  7  1  0
  7  8  2  0
  8  3  1  0
  8  9  1  0
  9 10  2  0
 10 11  1  0
 11 12  1  0
 11 13  2  0
 13 14  1  0
 14 15  2  0
 15 16  1  0
 16 17  2  0
 17 18  1  0
 18 13  1  0
 18 19  2  0
 19  9  1  0
 16 20  1  0
 20 21  1  0
 21 22  1  0
 22 15  1  0
M  END
> <Smiles>
COc1ccccc1-c1cc(O)c2cc3c(cc2n1)OCO3

> <ID>
CHEMBL14536

> <standard_value>
64565.42

> <IC50_uM>
64.56542

> <Activity>
No

> <pIC50>
4.19000002

> <BCI>
0

$$$$

  SciTegic03012415362D

 17 18  0  0  0  0            999 V2000
    3.8983   -0.7459    0.0000 C   0  0
    2.6003   -1.4977    0.0000 O   0  0
    1.2990   -0.7500    0.0000 C   0  0
    1.2990    0.7500    0.0000 C   0  0
    0.0000    1.5000    0.0000 C   0  0
   -0.0031    3.0008    0.0000 C   0  0
   -1.3039    3.7494    0.0000 C   0  0
   -2.6532    3.1236    0.0000 N   0  0
   -3.6607    4.2349    0.0000 C   0  0
   -5.1520    4.0729    0.0000 N   0  0
   -2.9153    5.5365    0.0000 N   0  0
   -1.4470    5.2297    0.0000 C   0  0
   -0.3298    6.2307    0.0000 O   0  0
   -1.2990    0.7500    0.0000 C   0  0
   -1.2990   -0.7500    0.0000 C   0  0
    0.0000   -1.5000    0.0000 C   0  0
    0.0000   -3.0000    0.0000 O   0  0
  1  2  1  0
  2  3  1  0
  3  4  2  0
  4  5  1  0
  5  6  1  0
  6  7  2  0
  7  8  1  0
  8  9  2  0
  9 10  1  0
  9 11  1  0
 11 12  1  0
 12  7  1  0
 12 13  2  0
  5 14  2  0
 14 15  1  0
 15 16  2  0
 16  3  1  0
 16 17  1  0
M  END
> <Smiles>
COc1cc(/C=C2\N=C(N)NC2=O)ccc1O

> <ID>
CHEMBL603189

> <standard_value>
65000

> <IC50_uM>
65

> <Activity>
No

> <pIC50>
4.187086643

> <BCI>
0

$$$$

  SciTegic03012415362D

 20 22  0  0  0  0            999 V2000
    6.4983   -0.7414    0.0000 C   0  0
    5.2003   -1.4932    0.0000 C   0  0
    3.8990   -0.7455    0.0000 O   0  0
    2.6003   -1.4977    0.0000 C   0  0
    2.6030   -2.9977    0.0000 O   0  0
    1.2990   -0.7500    0.0000 C   0  0
    1.2990    0.7500    0.0000 C   0  0
    0.0000    1.5000    0.0000 N   0  0
   -1.2990    0.7500    0.0000 C   0  0
   -2.7248    1.2135    0.0000 O   0  0
   -3.6065    0.0000    0.0000 C   0  0
   -5.0972   -0.1561    0.0000 C   0  0
   -5.7073   -1.5264    0.0000 C   0  0
   -4.8256   -2.7399    0.0000 C   0  0
   -5.4357   -4.1102    0.0000 O   0  0
   -3.3339   -2.5831    0.0000 C   0  0
   -2.7248   -1.2135    0.0000 C   0  0
   -1.2990   -0.7500    0.0000 C   0  0
    0.0000   -1.5000    0.0000 C   0  0
    0.0000   -3.0000    0.0000 C   0  0
  1  2  1  0
  2  3  1  0
  3  4  1  0
  4  5  2  0
  4  6  1  0
  6  7  2  0
  7  8  1  0
  8  9  2  0
  9 10  1  0
 10 11  1  0
 11 12  2  0
 12 13  1  0
 13 14  2  0
 14 15  1  0
 14 16  1  0
 16 17  2  0
 17 11  1  0
 17 18  1  0
 18  9  1  0
 18 19  2  0
 19  6  1  0
 19 20  1  0
M  END
> <Smiles>
CCOC(=O)c1cnc2oc3ccc(O)cc3c2c1C

> <ID>
CHEMBL335027

> <standard_value>
69900

> <IC50_uM>
69.9

> <Activity>
No

> <pIC50>
4.155522824

> <BCI>
0

$$$$

  SciTegic03012415362D

 30 31  0  0  0  0            999 V2000
    3.8841    3.7529    0.0000 C   0  0
    5.1855    3.0070    0.0000 C   0  0
    5.1912    1.5062    0.0000 O   0  0
    6.4933    0.7599    0.0000 C   0  0
    7.7897    1.5144    0.0000 O   0  0
    6.4990   -0.7409    0.0000 C   0  0  3  0  0  0
    5.2003   -1.4932    0.0000 C   0  0
    3.8990   -0.7455    0.0000 C   0  0
    2.6003   -1.4977    0.0000 C   0  0
    1.2990   -0.7500    0.0000 C   0  0
    1.2990    0.7500    0.0000 C   0  0
    0.0000    1.5000    0.0000 C   0  0
    0.0000    3.0000    0.0000 N   0  0
   -1.2990    0.7500    0.0000 C   0  0
   -1.2990   -0.7500    0.0000 C   0  0
    0.0000   -1.5000    0.0000 C   0  0
   -0.0031   -3.0008    0.0000 O   0  0
   -1.3039   -3.7494    0.0000 S   0  0
   -2.6016   -2.9971    0.0000 O   0  0
   -1.3015   -2.2494    0.0000 O   0  0
   -1.3070   -5.2502    0.0000 C   0  0
   -2.6071   -5.9984    0.0000 F   0  0
   -0.0092   -6.0025    0.0000 F   0  0
   -1.3094   -6.7502    0.0000 F   0  0
    7.8003   -1.4887    0.0000 C   0  0
    9.0994   -0.7387    0.0000 C   0  0
   10.3984   -1.4887    0.0000 C   0  0
   10.3985   -2.9887    0.0000 C   0  0
    9.0995   -3.7387    0.0000 C   0  0
    7.8004   -2.9887    0.0000 C   0  0
  1  2  1  0
  2  3  1  0
  3  4  1  0
  4  5  2  0
  4  6  1  0
  6  7  1  4
  7  8  1  0
  8  9  1  0
  9 10  1  0
 10 11  2  0
 11 12  1  0
 12 13  1  0
 12 14  2  0
 14 15  1  0
 15 16  2  0
 16 10  1  0
 16 17  1  0
 17 18  1  0
 18 19  2  0
 18 20  2  0
 18 21  1  0
 21 22  1  0
 21 23  1  0
 21 24  1  0
  6 25  1  0
 25 26  2  0
 26 27  1  0
 27 28  2  0
 28 29  1  0
 29 30  2  0
 30 25  1  0
M  END
> <Smiles>
CCOC(=O)C(CCCc1cc(N)ccc1OS(=O)(=O)C(F)(F)F)c1ccccc1

> <ID>
CHEMBL1774716

> <standard_value>
73500

> <IC50_uM>
73.5

> <Activity>
No

> <pIC50>
4.133712661

> <BCI>
0

$$$$

  SciTegic03012415362D

 44 46  0  0  1  0            999 V2000
    1.7310    3.1341    0.0000 C   0  0
    0.4315    2.3848    0.0000 C   0  0
   -0.8631    3.1344    0.0000 C   0  0
   -2.1804    2.3848    0.0000 C   0  0  2  0  0  0
   -3.4784    3.1381    0.0000 O   0  0
   -4.7803    2.3915    0.0000 C   0  0
   -4.7843    0.8916    0.0000 C   0  0
   -6.0776    3.1446    0.0000 O   0  0
   -2.1804    0.8858    0.0000 C   0  0
   -1.3160    0.3831    0.0000 O   0  0
   -3.4978    0.1363    0.0000 C   0  0
   -3.4580    1.6358    0.0000 C   0  0
   -4.7815   -0.6396    0.0000 C   0  0
   -3.4978   -1.3401    0.0000 C   0  0
   -2.1804   -2.0896    0.0000 C   0  0
   -2.1517   -3.6049    0.0000 C   0  0  1  0  0  0
   -1.6642   -2.1864    0.0000 C   0  0
    0.4315   -2.0896    0.0000 C   0  0
    0.4278   -3.0896    0.0000 O   0  0
    1.7489   -1.3401    0.0000 C   0  0  1  0  0  0
    1.8586   -2.8343    0.0000 O   0  0
    3.2100   -3.4870    0.0000 C   0  0
    4.4501   -2.6431    0.0000 C   0  0
    3.3214   -4.9829    0.0000 O   0  0
    3.2025   -1.7943    0.0000 C   0  0
    4.0429   -0.5905    0.0000 C   0  0  2  0  0  0
    5.5429   -0.5838    0.0000 C   0  0
    3.2025    0.5905    0.0000 C   0  0  2  0  0  0
    3.6980    2.0047    0.0000 O   0  0
    5.1726    2.2836    0.0000 C   0  0
    6.1507    1.1463    0.0000 O   0  0
    5.6693    3.6999    0.0000 C   0  0
    7.1428    3.9809    0.0000 C   0  0
    7.6363    5.3974    0.0000 C   0  0
    6.6563    6.5330    0.0000 C   0  0
    5.1828    6.2521    0.0000 C   0  0
    4.6893    4.8356    0.0000 C   0  0
    1.7489    0.1363    0.0000 C   0  0  1  0  0  0
    1.9094    1.6277    0.0000 O   0  0
    0.4315    0.8858    0.0000 C   0  0  1  0  0  0
   -0.8664    0.1325    0.0000 O   0  0
   -1.3775   -1.2786    0.0000 C   0  0
   -0.7333   -2.0434    0.0000 C   0  0
   -2.3619   -1.4544    0.0000 O   0  0
  1  2  2  0
  2  3  1  0
  3  4  1  0
  4  5  1  1
  5  6  1  0
  6  7  1  0
  6  8  2  0
  4  9  1  0
  9 10  2  0
  9 11  1  0
 11 12  1  0
 11 13  1  0
 11 14  1  0
 14 15  2  0
 15 16  1  0
 16 17  1  6
 16 18  1  0
 18 19  2  0
 18 20  1  0
 20 21  1  1
 21 22  1  0
 22 23  1  0
 22 24  2  0
 20 25  1  0
 25 26  1  0
 26 27  1  1
 26 28  1  0
 28 29  1  1
 29 30  1  0
 30 31  2  0
 30 32  1  0
 32 33  2  0
 33 34  1  0
 34 35  2  0
 35 36  1  0
 36 37  2  0
 37 32  1  0
 28 38  1  0
 38 20  1  0
 38 39  1  6
 38 40  1  0
 40  2  1  0
 40 41  1  1
 41 42  1  0
 42 43  1  0
 42 44  2  0
M  END
> <Smiles>
C=C1C[C@H](OC(C)=O)C(=O)C(C)(C)/C=C/[C@@H](C)C(=O)[C@@]2(OC(C)=O)C[C@H](C)[C@H](OC(=O)c3ccccc3)[C@]2(O)[C@H]1OC(C)=O

> <ID>
CHEMBL453511

> <standard_value>
75160

> <IC50_uM>
75.16

> <Activity>
No

> <pIC50>
4.124013229

> <BCI>
0

$$$$

  SciTegic03012415362D

 42 47  0  0  0  0            999 V2000
    1.2443   -5.8182    0.0000 O   0  0
   -0.2234   -5.5086    0.0000 C   0  0
   -1.2256   -6.6258    0.0000 N   0  0
   -0.7600   -8.0526    0.0000 C   0  0
   -1.7600   -9.1707    0.0000 C   0  0
   -1.2918  -10.5957    0.0000 C   0  0
    0.1764  -10.9028    0.0000 C   0  0
    0.6478  -12.3277    0.0000 C   0  0
    2.1173  -12.6328    0.0000 C   0  0
    2.5905  -14.0562    0.0000 C   0  0
    4.0598  -14.3582    0.0000 C   0  0
    5.0560  -13.2368    0.0000 C   0  0
    4.5828  -11.8133    0.0000 C   0  0
    3.1136  -11.5114    0.0000 C   0  0
    1.1765   -9.7848    0.0000 C   0  0
    0.7083   -8.3597    0.0000 C   0  0
   -0.6890   -4.0818    0.0000 N   0  0
    0.3114   -2.9665    0.0000 C   0  0
    1.8032   -3.1233    0.0000 N   0  0
    2.4133   -1.7530    0.0000 N   0  0
    3.8794   -1.4442    0.0000 C   0  0
    4.3452   -0.0183    0.0000 O   0  0
    4.8823   -2.5608    0.0000 N   0  0
    6.3509   -2.2515    0.0000 C   0  0
    7.3549   -3.3660    0.0000 C   0  0
    8.8220   -3.0539    0.0000 C   0  0
    9.2853   -1.6272    0.0000 C   0  0
   10.7527   -1.3119    0.0000 C   0  0
   11.2142    0.1162    0.0000 C   0  0
   12.6803    0.4334    0.0000 C   0  0
   13.1386    1.8617    0.0000 C   0  0
   12.1309    2.9728    0.0000 C   0  0
   10.6648    2.6556    0.0000 C   0  0
   10.2065    1.2273    0.0000 C   0  0
    8.2815   -0.5127    0.0000 C   0  0
    6.8143   -0.8248    0.0000 C   0  0
    1.2990   -0.7500    0.0000 C   0  0
    1.2990    0.7500    0.0000 C   0  0
    0.0000    1.5000    0.0000 C   0  0
   -1.2990    0.7500    0.0000 C   0  0
   -1.2990   -0.7500    0.0000 C   0  0
    0.0000   -1.5000    0.0000 C   0  0
  1  2  2  0
  2  3  1  0
  3  4  1  0
  4  5  2  0
  5  6  1  0
  6  7  2  0
  7  8  1  0
  8  9  1  0
  9 10  2  0
 10 11  1  0
 11 12  2  0
 12 13  1  0
 13 14  2  0
 14  9  1  0
  7 15  1  0
 15 16  2  0
 16  4  1  0
  2 17  1  0
 17 18  1  0
 18 19  2  0
 19 20  1  0
 20 21  1  0
 21 22  2  0
 21 23  1  0
 23 24  1  0
 24 25  2  0
 25 26  1  0
 26 27  2  0
 27 28  1  0
 28 29  1  0
 29 30  2  0
 30 31  1  0
 31 32  2  0
 32 33  1  0
 33 34  2  0
 34 29  1  0
 27 35  1  0
 35 36  2  0
 36 24  1  0
 20 37  1  0
 37 38  2  0
 38 39  1  0
 39 40  2  0
 40 41  1  0
 41 42  2  0
 42 18  1  0
 42 37  1  0
M  END
> <Smiles>
O=C(Nc1ccc(Cc2ccccc2)cc1)Nc1nn(C(=O)Nc2ccc(Cc3ccccc3)cc2)c2ccccc12

> <ID>
CHEMBL446499

> <standard_value>
75600

> <IC50_uM>
75.6

> <Activity>
No

> <pIC50>
4.121478204

> <BCI>
0

$$$$

  SciTegic03012415362D

 20 22  0  0  0  0            999 V2000
    2.5875   -5.9994    0.0000 C   0  0
    3.8888   -5.2533    0.0000 N   0  0
    5.1854   -6.0076    0.0000 C   0  0
    3.8943   -3.7525    0.0000 C   0  0
    5.1945   -3.0045    0.0000 C   0  0
    5.1969   -1.5045    0.0000 C   0  0
    3.8991   -0.7525    0.0000 C   0  0
    2.5987   -1.5004    0.0000 C   0  0
    1.2990   -0.7500    0.0000 C   0  0
    1.2990    0.7500    0.0000 C   0  0
    0.0000    1.5000    0.0000 C   0  0
    0.0000    3.0000    0.0000 O   0  0
   -1.2990    0.7500    0.0000 C   0  0
   -2.5981    1.5000    0.0000 C   0  0
   -3.8971    0.7500    0.0000 C   0  0
   -3.8971   -0.7500    0.0000 C   0  0
   -2.5981   -1.5000    0.0000 C   0  0
   -1.2990   -0.7500    0.0000 C   0  0
    0.0000   -1.5000    0.0000 N   0  0
    2.5965   -3.0004    0.0000 C   0  0
  1  2  1  0
  2  3  1  0
  2  4  1  0
  4  5  2  0
  5  6  1  0
  6  7  2  0
  7  8  1  0
  8  9  1  0
  9 10  2  0
 10 11  1  0
 11 12  1  0
 11 13  2  0
 13 14  1  0
 14 15  2  0
 15 16  1  0
 16 17  2  0
 17 18  1  0
 18 13  1  0
 18 19  2  0
 19  9  1  0
  8 20  2  0
 20  4  1  0
M  END
> <Smiles>
CN(C)c1cccc(-c2cc(O)c3ccccc3n2)c1

> <ID>
CHEMBL14633

> <standard_value>
75857.76

> <IC50_uM>
75.85776

> <Activity>
No

> <pIC50>
4.119999986

> <BCI>
0

$$$$

  SciTegic03012415362D

 19 21  0  0  1  0            999 V2000
   -0.6923   -4.0811    0.0000 C   0  0
    0.3114   -2.9665    0.0000 C   0  0
    1.8032   -3.1233    0.0000 C   0  0
    2.5532   -4.4223    0.0000 O   0  0
    2.4133   -1.7530    0.0000 O   0  0
    1.2990   -0.7500    0.0000 C   0  0  1  0  0  0
    1.2990    0.7500    0.0000 C   0  0
    0.0000    1.5000    0.0000 C   0  0  1  0  0  0
    1.2990    2.2500    0.0000 C   0  0
   -1.2990    0.7500    0.0000 C   0  0  2  0  0  0
   -2.5981    1.5000    0.0000 C   0  0
   -3.8971    0.7500    0.0000 C   0  0
   -2.5981    3.0000    0.0000 C   0  0
   -1.2991    3.7500    0.0000 C   0  0
    0.0000    3.0000    0.0000 C   0  0  2  0  0  0
    1.2990    3.7500    0.0000 O   0  0
   -1.2990   -0.7500    0.0000 C   0  0  1  0  0  0
   -2.5981   -1.5000    0.0000 O   0  0
    0.0000   -1.5000    0.0000 C   0  0  2  0  0  0
  1  2  2  0
  2  3  1  0
  3  4  2  0
  3  5  1  0
  6  5  1  6
  6  7  1  0
  7  8  1  0
  8  9  1  6
  8 10  1  0
 10 11  1  1
 11 12  2  0
 11 13  1  0
 13 14  1  0
 14 15  1  0
 15  8  1  0
 15 16  1  6
 10 17  1  0
 17 18  1  6
 17 19  1  0
 19  2  1  1
 19  6  1  0
M  END
> <Smiles>
C=C1C(=O)O[C@H]2C[C@@]3(C)[C@H](C(=C)CC[C@@H]3O)[C@@H](O)[C@H]12

> <ID>
CHEMBL510333

> <standard_value>
76000

> <IC50_uM>
76

> <Activity>
No

> <pIC50>
4.119186408

> <BCI>
0

$$$$

  SciTegic03012415362D

 21 23  0  0  0  0            999 V2000
    4.2566    0.5871    0.0000 C   0  0
    3.9511   -0.8815    0.0000 N   0  0
    4.9531   -1.9978    0.0000 C   0  0
    4.2010   -3.2956    0.0000 C   0  0
    2.7343   -2.9815    0.0000 C   0  0
    2.5987   -1.5004    0.0000 C   0  0
    1.2990   -0.7500    0.0000 C   0  0
    1.2990    0.7500    0.0000 C   0  0
    0.0000    1.5000    0.0000 C   0  0
    0.0000    3.0008    0.0000 C   0  0
    1.2978    3.7529    0.0000 C   0  0
    1.2954    5.2529    0.0000 C   0  0
   -0.0048    6.0009    0.0000 C   0  0
   -1.3026    5.2488    0.0000 C   0  0
   -1.3002    3.7488    0.0000 C   0  0
   -1.2990    0.7500    0.0000 N   0  0
   -1.2990   -0.7500    0.0000 C   0  0
   -2.5981   -1.5000    0.0000 N   0  0
    0.0000   -1.5000    0.0000 C   0  0
    0.0000   -3.0008    0.0000 C   0  0
    0.0000   -4.5008    0.0000 N   0  0
  1  2  1  0
  2  3  1  0
  3  4  2  0
  4  5  1  0
  5  6  2  0
  6  2  1  0
  6  7  1  0
  7  8  2  0
  8  9  1  0
  9 10  1  0
 10 11  2  0
 11 12  1  0
 12 13  2  0
 13 14  1  0
 14 15  2  0
 15 10  1  0
  9 16  2  0
 16 17  1  0
 17 18  1  0
 17 19  2  0
 19  7  1  0
 19 20  1  0
 20 21  3  0
M  END
> <Smiles>
Cn1cccc1-c1cc(-c2ccccc2)nc(N)c1C#N

> <ID>
CHEMBL3410018

> <standard_value>
79400

> <IC50_uM>
79.4

> <Activity>
No

> <pIC50>
4.100179498

> <BCI>
0

$$$$

  SciTegic03012415362D

 49 53  0  0  1  0            999 V2000
    1.2919   -5.2492    0.0000 C   0  0
    2.5886   -6.0033    0.0000 O   0  0
    3.8912   -5.2578    0.0000 N   0  0
    3.8933   -3.7570    0.0000 C   0  0
    2.5951   -3.0039    0.0000 C   0  0
    2.5973   -1.5031    0.0000 C   0  0
    1.2990   -0.7500    0.0000 C   0  0
    1.2990    0.7500    0.0000 C   0  0
    0.0000    1.5000    0.0000 C   0  0
   -1.2990    0.7500    0.0000 C   0  0
   -2.6003    1.4977    0.0000 N   0  0
   -3.8990    0.7455    0.0000 C   0  0
   -5.2003    1.4932    0.0000 C   0  0
   -6.4983    0.7413    0.0000 Cl  0  0
   -2.6061    2.9986    0.0000 C   0  0
   -3.9082    3.7448    0.0000 C   0  0
   -3.9139    5.2448    0.0000 Cl  0  0
   -1.2990   -0.7500    0.0000 C   0  0
    0.0000   -1.5000    0.0000 C   0  0
    5.1894   -6.0109    0.0000 C   0  0  1  0  0  0
    6.5408   -5.3899    0.0000 O   0  0
    7.5445   -6.5046    0.0000 C   0  0  2  0  0  0
    9.0342   -6.3449    0.0000 C   0  0
    9.6427   -4.9729    0.0000 O   0  0
   11.1350   -4.8130    0.0000 C   0  0
   11.7434   -3.4410    0.0000 C   0  0
   13.2347   -3.2790    0.0000 C   0  0
   13.8400   -1.9065    0.0000 C   0  0
   12.9542   -0.6961    0.0000 C   0  0
   11.4629   -0.8580    0.0000 C   0  0
   10.8576   -2.2305    0.0000 C   0  0
    6.7945   -7.8036    0.0000 C   0  0  1  0  0  0
    7.4067   -9.1711    0.0000 O   0  0
    8.8995   -9.3258    0.0000 C   0  0
    9.5128  -10.6956    0.0000 C   0  0
   11.0046  -10.8524    0.0000 C   0  0
   11.6148  -12.2227    0.0000 C   0  0
   10.7331  -13.4363    0.0000 C   0  0
    9.2414  -13.2796    0.0000 C   0  0
    8.6312  -11.9093    0.0000 C   0  0
    5.3273   -7.4917    0.0000 C   0  0  2  0  0  0
    4.2083   -8.4880    0.0000 O   0  0
    4.5111   -9.9579    0.0000 C   0  0
    3.3901  -10.9559    0.0000 C   0  0
    3.6907  -12.4255    0.0000 C   0  0
    2.5683  -13.4206    0.0000 C   0  0
    1.1453  -12.9461    0.0000 C   0  0
    0.8447  -11.4766    0.0000 C   0  0
    1.9671  -10.4814    0.0000 C   0  0
  1  2  1  0
  2  3  1  0
  3  4  1  0
  4  5  1  0
  5  6  1  0
  6  7  1  0
  7  8  2  0
  8  9  1  0
  9 10  2  0
 10 11  1  0
 11 12  1  0
 12 13  1  0
 13 14  1  0
 11 15  1  0
 15 16  1  0
 16 17  1  0
 10 18  1  0
 18 19  2  0
 19  7  1  0
 20  3  1  1
 20 21  1  0
 21 22  1  0
 22 23  1  6
 23 24  1  0
 24 25  1  0
 25 26  1  0
 26 27  2  0
 27 28  1  0
 28 29  2  0
 29 30  1  0
 30 31  2  0
 31 26  1  0
 22 32  1  0
 32 33  1  1
 33 34  1  0
 34 35  1  0
 35 36  2  0
 36 37  1  0
 37 38  2  0
 38 39  1  0
 39 40  2  0
 40 35  1  0
 32 41  1  0
 41 20  1  0
 41 42  1  6
 42 43  1  0
 43 44  1  0
 44 45  2  0
 45 46  1  0
 46 47  2  0
 47 48  1  0
 48 49  2  0
 49 44  1  0
M  END
> <Smiles>
CON(CCCc1ccc(N(CCCl)CCCl)cc1)[C@H]1O[C@H](COCc2ccccc2)[C@@H](OCc2ccccc2)[C@@H]1OCc1ccccc1

> <ID>
CHEMBL1276003

> <standard_value>
80000

> <IC50_uM>
80

> <Activity>
No

> <pIC50>
4.096910013

> <BCI>
0

$$$$

  SciTegic03012415362D

 29 30  0  0  0  0            999 V2000
    2.6011   -5.9961    0.0000 C   0  0
    3.8999   -5.2457    0.0000 C   0  0
    3.9003   -3.7449    0.0000 O   0  0
    5.1998   -2.9940    0.0000 C   0  0
    6.4989   -3.7440    0.0000 O   0  0
    5.2003   -1.4932    0.0000 C   0  0  3  0  0  0
    3.8990   -0.7455    0.0000 C   0  0
    2.6003   -1.4977    0.0000 C   0  0
    1.2990   -0.7500    0.0000 C   0  0
    1.2990    0.7500    0.0000 C   0  0
    0.0000    1.5000    0.0000 C   0  0
    0.0000    3.0000    0.0000 N   0  0
   -1.2990    0.7500    0.0000 C   0  0
   -1.2990   -0.7500    0.0000 C   0  0
    0.0000   -1.5000    0.0000 C   0  0
   -0.0031   -3.0008    0.0000 O   0  0
   -1.3039   -3.7494    0.0000 S   0  0
   -2.6016   -2.9971    0.0000 O   0  0
   -1.3015   -2.2494    0.0000 O   0  0
   -1.3070   -5.2502    0.0000 C   0  0
   -2.6071   -5.9984    0.0000 F   0  0
   -0.0092   -6.0025    0.0000 F   0  0
   -1.3094   -6.7502    0.0000 F   0  0
    6.4990   -0.7409    0.0000 C   0  0
    7.8007   -1.4864    0.0000 C   0  0
    9.0971   -0.7319    0.0000 C   0  0
    9.0919    0.7681    0.0000 C   0  0
    7.7903    1.5136    0.0000 C   0  0
    6.4939    0.7591    0.0000 C   0  0
  1  2  1  0
  2  3  1  0
  3  4  1  0
  4  5  2  0
  4  6  1  0
  6  7  1  4
  7  8  1  0
  8  9  1  0
  9 10  2  0
 10 11  1  0
 11 12  1  0
 11 13  2  0
 13 14  1  0
 14 15  2  0
 15  9  1  0
 15 16  1  0
 16 17  1  0
 17 18  2  0
 17 19  2  0
 17 20  1  0
 20 21  1  0
 20 22  1  0
 20 23  1  0
  6 24  1  0
 24 25  2  0
 25 26  1  0
 26 27  2  0
 27 28  1  0
 28 29  2  0
 29 24  1  0
M  END
> <Smiles>
CCOC(=O)C(CCc1cc(N)ccc1OS(=O)(=O)C(F)(F)F)c1ccccc1

> <ID>
CHEMBL1774717

> <standard_value>
81400

> <IC50_uM>
81.4

> <Activity>
No

> <pIC50>
4.089375595

> <BCI>
0

$$$$

  SciTegic03012415362D

 25 27  0  0  0  0            999 V2000
    3.8983   -0.7459    0.0000 C   0  0
    2.6003   -1.4977    0.0000 O   0  0
    1.2990   -0.7500    0.0000 C   0  0
    1.2990    0.7500    0.0000 C   0  0
    0.0000    1.5000    0.0000 C   0  0
   -1.2990    0.7500    0.0000 C   0  0
   -2.5987    1.5004    0.0000 C   0  0
   -2.6012    3.0004    0.0000 C   0  0
   -3.9015    3.7484    0.0000 C   0  0
   -3.9038    5.2491    0.0000 C   0  0
   -5.1201    6.1051    0.0000 C   0  0
   -4.6611    7.5331    0.0000 C   0  0
   -3.1611    7.5379    0.0000 C   0  0
   -2.6931    6.1128    0.0000 N   0  0
   -1.2678    5.6453    0.0000 C   0  0
   -5.1993    2.9963    0.0000 C   0  0
   -6.5002    3.7446    0.0000 C   0  0
   -7.8005    4.4926    0.0000 N   0  0
   -5.1969    1.4963    0.0000 C   0  0
   -6.4947    0.7442    0.0000 N   0  0
   -3.8967    0.7484    0.0000 N   0  0
   -1.2990   -0.7500    0.0000 C   0  0
    0.0000   -1.5000    0.0000 C   0  0
   -0.0031   -3.0008    0.0000 O   0  0
   -1.3032   -3.7490    0.0000 C   0  0
  1  2  1  0
  2  3  1  0
  3  4  2  0
  4  5  1  0
  5  6  2  0
  6  7  1  0
  7  8  2  0
  8  9  1  0
  9 10  1  0
 10 11  2  0
 11 12  1  0
 12 13  2  0
 13 14  1  0
 14 10  1  0
 14 15  1  0
  9 16  2  0
 16 17  1  0
 17 18  3  0
 16 19  1  0
 19 20  1  0
 19 21  2  0
 21  7  1  0
  6 22  1  0
 22 23  2  0
 23  3  1  0
 23 24  1  0
 24 25  1  0
M  END
> <Smiles>
COc1ccc(-c2cc(-c3cccn3C)c(C#N)c(N)n2)cc1OC

> <ID>
CHEMBL3410019

> <standard_value>
83200

> <IC50_uM>
83.2

> <Activity>
No

> <pIC50>
4.079876674

> <BCI>
0

$$$$

  SciTegic03012415362D

 27 31  0  0  0  0            999 V2000
    3.8805   -1.4410    0.0000 O   0  0
    2.4133   -1.7530    0.0000 C   0  0
    1.2990   -0.7500    0.0000 C   0  0
    1.2990    0.7500    0.0000 C   0  0
    0.0000    1.5000    0.0000 C   0  0
   -1.2990    0.7500    0.0000 C   0  0
   -1.2990   -0.7500    0.0000 C   0  0
    0.0000   -1.5000    0.0000 C   0  0
    0.3114   -2.9665    0.0000 C   0  0
    1.8032   -3.1233    0.0000 C   0  0
    2.4135   -4.4923    0.0000 C   0  0
    3.9053   -4.6492    0.0000 C   0  0
    4.5154   -6.0195    0.0000 C   0  0
    3.6337   -7.2330    0.0000 C   0  0
    2.1419   -7.0762    0.0000 C   0  0
    1.5318   -5.7059    0.0000 C   0  0
    0.0400   -5.5491    0.0000 C   0  0
   -0.8417   -6.7626    0.0000 O   0  0
   -0.5701   -4.1788    0.0000 N   0  0
   -2.0630   -4.0243    0.0000 C   0  0
   -2.9439   -5.2394    0.0000 C   0  0
   -4.4368   -5.0850    0.0000 N   0  0
   -5.3190   -6.2982    0.0000 C   0  0
   -6.8107   -6.1408    0.0000 C   0  0
   -7.4203   -4.7702    0.0000 O   0  0
   -6.5381   -3.5571    0.0000 C   0  0
   -5.0464   -3.7144    0.0000 C   0  0
  1  2  2  0
  2  3  1  0
  3  4  2  0
  4  5  1  0
  5  6  2  0
  6  7  1  0
  7  8  2  0
  8  3  1  0
  8  9  1  0
  9 10  2  0
 10  2  1  0
 10 11  1  0
 11 12  2  0
 12 13  1  0
 13 14  2  0
 14 15  1  0
 15 16  2  0
 16 11  1  0
 16 17  1  0
 17 18  2  0
 17 19  1  0
 19  9  1  0
 19 20  1  0
 20 21  1  0
 21 22  1  0
 22 23  1  0
 23 24  1  0
 24 25  1  0
 25 26  1  0
 26 27  1  0
 27 22  1  0
M  END
> <Smiles>
O=C1c2ccccc2-c2c1c1ccccc1c(=O)n2CCN1CCOCC1

> <ID>
CHEMBL188946

> <standard_value>
85100

> <IC50_uM>
85.1

> <Activity>
No

> <pIC50>
4.07007044

> <BCI>
0

$$$$

  SciTegic03012415362D

 21 23  0  0  0  0            999 V2000
    3.8983   -0.7459    0.0000 C   0  0
    2.6003   -1.4977    0.0000 O   0  0
    1.2990   -0.7500    0.0000 C   0  0
    1.2990    0.7500    0.0000 C   0  0
    0.0000    1.5000    0.0000 C   0  0
    0.0000    3.0000    0.0000 O   0  0
   -1.2990    0.7500    0.0000 C   0  0
   -1.2990   -0.7500    0.0000 C   0  0
   -2.5981   -1.5000    0.0000 C   0  0
   -2.5981   -3.0000    0.0000 C   0  0
   -3.8971   -3.7500    0.0000 O   0  0
   -3.8971   -5.2500    0.0000 C   0  0
   -5.1961   -6.0000    0.0000 C   0  0
   -2.5980   -6.0000    0.0000 C   0  0
   -1.2990   -5.2500    0.0000 C   0  0
    0.0000   -6.0000    0.0000 O   0  0
   -1.2990   -3.7500    0.0000 C   0  0
    0.0000   -3.0000    0.0000 C   0  0
    1.3013   -3.7477    0.0000 O   0  0
    2.5993   -2.9959    0.0000 C   0  0
    0.0000   -1.5000    0.0000 C   0  0
  1  2  1  0
  2  3  1  0
  3  4  2  0
  4  5  1  0
  5  6  1  0
  5  7  2  0
  7  8  1  0
  8  9  2  0
  9 10  1  0
 10 11  1  0
 11 12  1  0
 12 13  1  0
 12 14  2  0
 14 15  1  0
 15 16  2  0
 15 17  1  0
 17 10  2  0
 17 18  1  0
 18 19  1  0
 19 20  1  0
 18 21  2  0
 21  3  1  0
 21  8  1  0
M  END
> <Smiles>
COc1cc(O)cc2cc3oc(C)cc(=O)c3c(OC)c12

> <ID>
CHEMBL399154

> <standard_value>
85113.8

> <IC50_uM>
85.1138

> <Activity>
No

> <pIC50>
4.070000019

> <BCI>
0

$$$$

  SciTegic03012415362D

 35 39  0  0  1  0            999 V2000
    9.1118    3.7156    0.0000 C   0  0
    8.1428    4.8606    0.0000 C   0  0
    6.6660    4.5933    0.0000 C   0  0
    6.1581    3.1810    0.0000 C   0  0
    4.6813    2.9137    0.0000 C   0  0
    4.1735    1.5014    0.0000 C   0  0  1  0  0  0
    5.1425    0.3564    0.0000 C   0  0
    2.7140    1.2135    0.0000 C   0  0  1  0  0  0
    2.0324    1.9452    0.0000 C   0  0
    3.5957    0.0000    0.0000 C   0  0
    2.7140   -1.2135    0.0000 C   0  0  1  0  0  0
    1.5943   -2.2200    0.0000 O   0  0
    1.2990   -0.7500    0.0000 C   0  0  2  0  0  0
    1.2990    0.7500    0.0000 C   0  0  1  0  0  0
    1.4024    1.7447    0.0000 C   0  0
    0.0000    1.5000    0.0000 C   0  0
   -1.2990    0.7500    0.0000 C   0  0
   -1.2990   -0.7500    0.0000 C   0  0
   -2.5981   -1.5000    0.0000 O   0  0
    0.0000   -1.5000    0.0000 C   0  0  1  0  0  0
   -0.5753   -2.9306    0.0000 C   0  0
    0.5394   -3.9343    0.0000 C   0  0
    1.8384   -3.1842    0.0000 C   0  0  1  0  0  0
    3.2635   -3.6377    0.0000 C   0  0
    2.1297   -4.6198    0.0000 C   0  0
    4.7026   -4.0610    0.0000 C   0  0
    4.3753   -2.6308    0.0000 C   0  0  1  0  0  0
    5.8032   -3.0902    0.0000 O   0  0
    4.0592   -1.1645    0.0000 C   0  0
    2.6313   -0.7051    0.0000 C   0  0
    1.5266   -1.7170    0.0000 C   0  0  2  0  0  0
    1.0830   -0.2841    0.0000 C   0  0
    8.6506    6.2729    0.0000 C   0  0
   10.1267    6.5400    0.0000 O   0  0
    7.6816    7.4179    0.0000 O   0  0
  1  2  1  0
  2  3  2  0
  3  4  1  0
  4  5  1  0
  5  6  1  0
  6  7  1  1
  6  8  1  0
  8  9  1  6
  8 10  1  0
 11 10  1  1
 11 12  1  0
 13 12  1  6
 13 11  1  0
 13 14  1  0
 14  8  1  0
 14 15  1  1
 14 16  1  0
 16 17  1  0
 17 18  1  0
 18 19  2  0
 18 20  1  0
 20 13  1  0
 20 21  1  6
 21 22  1  0
 23 22  1  6
 23 24  1  0
 24 25  1  0
 24 26  1  0
 24 27  1  0
 27 28  1  6
 27 29  1  0
 29 30  1  0
 30 31  1  0
 31 23  1  0
 31 20  1  0
 31 32  1  6
  2 33  1  0
 33 34  2  0
 33 35  1  0
M  END
> <Smiles>
C/C(=C\CC[C@@H](C)[C@@]1(C)C[C@H]2O[C@]23[C@]1(C)CCC(=O)[C@@]31CC[C@H]2C(C)(C)[C@@H](O)CC[C@@]21C)C(=O)O

> <ID>
CHEMBL519062

> <standard_value>
86400

> <IC50_uM>
86.4

> <Activity>
No

> <pIC50>
4.063486258

> <BCI>
0

$$$$

  SciTegic03012415362D

 22 23  0  0  0  0            999 V2000
    2.5983   -3.0004    0.0000 N   0  0
    2.5988   -1.5004    0.0000 S   0  0
    3.8983   -0.7512    0.0000 O   0  0
    3.8975   -2.2510    0.0000 O   0  0
    1.2990   -0.7500    0.0000 C   0  0
    1.2990    0.7500    0.0000 C   0  0
    0.0000    1.5000    0.0000 C   0  0
   -1.2990    0.7500    0.0000 C   0  0
   -2.6003    1.4977    0.0000 C   0  0
   -3.8990    0.7455    0.0000 C   0  0
   -5.2003    1.4932    0.0000 N   0  0
   -6.4990    0.7409    0.0000 S   0  0
   -7.8003    1.4887    0.0000 C   0  0
   -7.8029    2.9887    0.0000 S   0  0
   -9.0990    0.7364    0.0000 N   0  0
  -10.4007    1.4818    0.0000 C   0  0
  -11.6971    0.7273    0.0000 C   0  0
  -11.6919   -0.7727    0.0000 O   0  0
  -10.3903   -1.5182    0.0000 C   0  0
   -9.0939   -0.7637    0.0000 C   0  0
   -1.2990   -0.7500    0.0000 C   0  0
    0.0000   -1.5000    0.0000 C   0  0
  1  2  1  0
  2  3  2  0
  2  4  2  0
  2  5  1  0
  5  6  2  0
  6  7  1  0
  7  8  2  0
  8  9  1  0
  9 10  1  0
 10 11  1  0
 11 12  1  0
 12 13  1  0
 13 14  2  0
 13 15  1  0
 15 16  1  0
 16 17  1  0
 17 18  1  0
 18 19  1  0
 19 20  1  0
 20 15  1  0
  8 21  1  0
 21 22  2  0
 22  5  1  0
M  END
> <Smiles>
NS(=O)(=O)c1ccc(CCNSC(=S)N2CCOCC2)cc1

> <ID>
CHEMBL13975

> <standard_value>
90000

> <IC50_uM>
90

> <Activity>
No

> <pIC50>
4.045757491

> <BCI>
0

$$$$

  SciTegic03012415362D

 39 41  0  0  1  0            999 V2000
    6.1516   -2.3449    0.0000 C   0  0
    5.1755   -3.4838    0.0000 C   0  0
    5.6743   -4.8985    0.0000 O   0  0
    3.7004   -3.2074    0.0000 O   0  0
    3.2025   -1.7943    0.0000 C   0  0  1  0  0  0
    4.0429   -0.5905    0.0000 C   0  0  2  0  0  0
    5.5429   -0.5838    0.0000 C   0  0
    3.2025    0.5905    0.0000 C   0  0
    1.7489    0.1363    0.0000 C   0  0  2  0  0  0
    1.9094    1.6277    0.0000 O   0  0
    0.4315    0.8858    0.0000 C   0  0
   -0.4329    0.3831    0.0000 O   0  0
    0.4315    2.3848    0.0000 C   0  0
    1.7310    3.1341    0.0000 C   0  0
   -0.8631    3.1344    0.0000 C   0  0
   -0.8690    4.6500    0.0000 C   0  0
   -2.1804    0.8858    0.0000 C   0  0
   -2.2202   -0.6137    0.0000 C   0  0
   -0.8967    1.6617    0.0000 C   0  0
   -3.4978    0.1363    0.0000 C   0  0  2  0  0  0
   -4.7989    0.8843    0.0000 O   0  0
   -4.8028    2.3851    0.0000 C   0  0
   -3.5055    3.1381    0.0000 C   0  0
   -6.1033    3.1325    0.0000 O   0  0
   -3.4978   -1.3401    0.0000 C   0  0
   -2.1804   -2.0896    0.0000 C   0  0  1  0  0  0
   -2.1835   -3.5904    0.0000 O   0  0
   -3.4843   -4.3390    0.0000 C   0  0
   -4.7821   -3.5867    0.0000 O   0  0
   -3.4874   -5.8398    0.0000 C   0  0
   -4.7865   -6.5899    0.0000 C   0  0
   -4.7865   -8.0899    0.0000 C   0  0
   -3.4875   -8.8399    0.0000 C   0  0
   -2.1884   -8.0899    0.0000 C   0  0
   -2.1884   -6.5899    0.0000 C   0  0
   -0.8631   -1.3401    0.0000 C   0  0
   -0.8593   -0.3401    0.0000 C   0  0
    0.4315   -2.0896    0.0000 C   0  0
    1.7489   -1.3401    0.0000 C   0  0  1  0  0  0
  1  2  1  0
  2  3  2  0
  2  4  1  0
  5  4  1  6
  5  6  1  0
  6  7  1  1
  6  8  1  0
  8  9  1  0
  9 10  1  6
  9 11  1  0
 11 12  2  0
 11 13  1  0
 13 14  1  0
 13 15  2  0
 15 16  1  0
 16 17  1  0
 17 18  1  0
 17 19  1  0
 17 20  1  0
 20 21  1  1
 21 22  1  0
 22 23  1  0
 22 24  2  0
 20 25  1  0
 25 26  1  0
 26 27  1  6
 27 28  1  0
 28 29  2  0
 28 30  1  0
 30 31  2  0
 31 32  1  0
 32 33  2  0
 33 34  1  0
 34 35  2  0
 35 30  1  0
 26 36  1  0
 36 37  1  0
 36 38  2  0
 39 38  1  6
 39  5  1  0
 39  9  1  0
M  END
> <Smiles>
CC(=O)O[C@H]1[C@H](C)C[C@]2(O)C(=O)/C(C)=C/CC(C)(C)[C@H](OC(C)=O)C[C@@H](OC(=O)c3ccccc3)/C(C)=C/[C@@H]12

> <ID>
CHEMBL488000

> <standard_value>
90120

> <IC50_uM>
90.12

> <Activity>
No

> <pIC50>
4.045178817

> <BCI>
0

$$$$

  SciTegic03012415362D

 35 39  0  0  1  0            999 V2000
   10.1282   -1.0434    0.0000 C   0  0
    9.0893    0.0386    0.0000 C   0  0
    7.6322   -0.3207    0.0000 C   0  0
    7.2139   -1.7621    0.0000 C   0  0
    5.7567   -2.1215    0.0000 C   0  0
    4.7162   -1.0398    0.0000 C   0  0  1  0  0  0
    5.1329    0.4011    0.0000 C   0  0
    3.2665   -1.3733    0.0000 C   0  0  1  0  0  0
    2.9433   -2.3196    0.0000 C   0  0
    3.5755    0.0945    0.0000 C   0  0
    2.2750    0.8420    0.0000 C   0  0  1  0  0  0
    0.8419    1.3032    0.0000 O   0  0
    1.1729   -0.1592    0.0000 C   0  0  2  0  0  0
    1.7856   -1.5283    0.0000 C   0  0  1  0  0  0
    2.2863   -2.3940    0.0000 C   0  0
    0.9063   -2.7435    0.0000 C   0  0
   -0.5858   -2.5897    0.0000 C   0  0
   -1.1985   -1.2205    0.0000 C   0  0
   -2.6906   -1.0667    0.0000 O   0  0
   -0.3192   -0.0053    0.0000 C   0  0  1  0  0  0
   -1.4288    1.0654    0.0000 C   0  0
   -0.8213    2.4369    0.0000 C   0  0
    0.6707    2.2830    0.0000 C   0  0  1  0  0  0
    1.7862    3.2791    0.0000 C   0  0
    0.3501    3.7123    0.0000 C   0  0
    2.9268    4.2533    0.0000 C   0  0
    3.2124    2.8143    0.0000 C   0  0  1  0  0  0
    4.3280    3.8169    0.0000 O   0  0
    3.5229    1.3468    0.0000 C   0  0
    2.4072    0.3441    0.0000 C   0  0
    0.9855    0.8164    0.0000 C   0  0  2  0  0  0
    1.1660   -0.6727    0.0000 C   0  0
    9.5076    1.4800    0.0000 C   0  0
   10.9640    1.8391    0.0000 O   0  0
    8.4687    2.5620    0.0000 O   0  0
  1  2  1  0
  2  3  2  0
  3  4  1  0
  4  5  2  0
  5  6  1  0
  6  7  1  6
  6  8  1  0
  8  9  1  1
  8 10  1  0
 11 10  1  6
 11 12  1  0
 13 12  1  1
 13 11  1  0
 13 14  1  0
 14  8  1  0
 14 15  1  6
 14 16  1  0
 16 17  1  0
 17 18  1  0
 18 19  2  0
 18 20  1  0
 20 13  1  0
 20 21  1  1
 21 22  1  0
 23 22  1  1
 23 24  1  0
 24 25  1  0
 24 26  1  0
 24 27  1  0
 27 28  1  1
 27 29  1  0
 29 30  1  0
 30 31  1  0
 31 23  1  0
 31 20  1  0
 31 32  1  1
  2 33  1  0
 33 34  2  0
 33 35  1  0
M  END
> <Smiles>
C/C(=C\C=C/[C@@H](C)[C@@]1(C)C[C@H]2O[C@]23[C@]1(C)CCC(=O)[C@@]31CC[C@H]2C(C)(C)[C@@H](O)CC[C@@]21C)C(=O)O

> <ID>
CHEMBL519885

> <standard_value>
95700

> <IC50_uM>
95.7

> <Activity>
No

> <pIC50>
4.019088062

> <BCI>
0

$$$$

  SciTegic03012415362D

 12 12  0  0  0  0            999 V2000
    2.5951   -3.0031    0.0000 O   0  0
    2.5973   -1.5031    0.0000 N   0  3
    3.8976   -0.7553    0.0000 O   0  5
    1.2990   -0.7500    0.0000 C   0  0
    1.2990    0.7500    0.0000 C   0  0
    0.0000    1.5000    0.0000 C   0  0
   -1.2990    0.7500    0.0000 C   0  0
   -2.6003    1.4977    0.0000 C   0  0
   -3.8990    0.7455    0.0000 C   0  0
   -5.1996    1.4928    0.0000 I   0  0
   -1.2990   -0.7500    0.0000 C   0  0
    0.0000   -1.5000    0.0000 C   0  0
  1  2  2  0
  2  3  1  0
  2  4  1  0
  4  5  2  0
  5  6  1  0
  6  7  2  0
  7  8  1  0
  8  9  1  0
  9 10  1  0
  7 11  1  0
 11 12  2  0
 12  4  1  0
M  CHG  2   2   1   3  -1
M  END
> <Smiles>
O=[N+]([O-])c1ccc(CCI)cc1

> <ID>
CHEMBL1774703

> <standard_value>
95700

> <IC50_uM>
95.7

> <Activity>
No

> <pIC50>
4.019088062

> <BCI>
0

$$$$

  SciTegic03012415362D

 23 26  0  0  0  0            999 V2000
    2.5981   -1.5000    0.0000 C   0  0
    1.2990   -0.7500    0.0000 C   0  0
    1.2990    0.7500    0.0000 C   0  0
    2.5981    1.5000    0.0000 C   0  0
    2.5981    3.0000    0.0000 C   0  0
    1.2990    3.7500    0.0000 N   0  3
    1.2959    5.2508    0.0000 C   0  0
   -0.0049    5.9994    0.0000 C   0  0
   -0.0080    7.4994    0.0000 O   0  0
   -1.3026    5.2471    0.0000 O   0  0
    0.0000    3.0000    0.0000 C   0  0
    0.0000    1.5000    0.0000 C   0  0
   -1.2990    0.7500    0.0000 C   0  0
   -2.5981    1.5000    0.0000 C   0  0
   -1.2990   -0.7500    0.0000 C   0  0
    0.0000   -1.5000    0.0000 C   0  0
   -0.3114   -2.9665    0.0000 N   0  0
   -1.8032   -3.1233    0.0000 C   0  0
   -2.6837   -4.3363    0.0000 C   0  0
   -4.1755   -4.1795    0.0000 C   0  0
   -4.7856   -2.8092    0.0000 C   0  0
   -3.9040   -1.5957    0.0000 C   0  0
   -2.4133   -1.7530    0.0000 C   0  0
  1  2  1  0
  2  3  2  0
  3  4  1  0
  4  5  2  0
  5  6  1  0
  6  7  1  0
  7  8  1  0
  8  9  2  0
  8 10  1  0
  6 11  2  0
 11 12  1  0
 12  3  1  0
 12 13  2  0
 13 14  1  0
 13 15  1  0
 15 16  2  0
 16  2  1  0
 16 17  1  0
 17 18  1  0
 18 19  2  0
 19 20  1  0
 20 21  2  0
 21 22  1  0
 22 23  2  0
 23 18  1  0
 23 15  1  0
M  CHG  1   6   1
M  END
> <Smiles>
Cc1c2cc[n+](CC(=O)O)cc2c(C)c2c1[nH]c1ccccc12.[Br-]

> <ID>
CHEMBL67978

> <standard_value>
97100

> <IC50_uM>
97.1

> <Activity>
No

> <pIC50>
4.01278077

> <BCI>
0

> <RemovedSalts>
Br-

$$$$

  SciTegic03012415362D

 22 25  0  0  0  0            999 V2000
    4.7785   -7.1318    0.0000 O   0  0
    5.9962   -6.2558    0.0000 C   0  0
    5.8476   -4.7650    0.0000 C   0  0
    6.9656   -3.7650    0.0000 C   0  0
    6.3600   -2.3926    0.0000 C   0  0
    4.8823   -2.5608    0.0000 C   0  0
    3.8794   -1.4442    0.0000 C   0  0
    2.4133   -1.7530    0.0000 N   0  0
    1.2990   -0.7500    0.0000 C   0  0
    1.2990    0.7500    0.0000 C   0  0
    0.0000    1.5000    0.0000 C   0  0
   -1.2990    0.7500    0.0000 C   0  0
   -1.2990   -0.7500    0.0000 C   0  0
    0.0000   -1.5000    0.0000 C   0  0
    0.3114   -2.9665    0.0000 C   0  0
   -0.2984   -4.3347    0.0000 O   0  0
    0.8163   -5.3384    0.0000 C   0  0
    0.6628   -6.8288    0.0000 C   0  0
    1.8776   -7.7087    0.0000 O   0  0
    2.1153   -4.5884    0.0000 C   0  0
    1.8032   -3.1233    0.0000 C   0  0
    4.5510   -4.0107    0.0000 O   0  0
  1  2  1  0
  2  3  1  0
  3  4  2  0
  4  5  1  0
  5  6  2  0
  6  7  1  0
  7  8  1  0
  8  9  1  0
  9 10  2  0
 10 11  1  0
 11 12  2  0
 12 13  1  0
 13 14  2  0
 14  9  1  0
 14 15  1  0
 15 16  1  0
 16 17  1  0
 17 18  1  0
 18 19  1  0
 17 20  2  0
 20 21  1  0
 21 15  2  0
 21  8  1  0
  6 22  1  0
 22  3  1  0
M  END
> <Smiles>
OCc1ccc(Cn2c3ccccc3c3oc(CO)cc32)o1

> <ID>
CHEMBL2413628

> <standard_value>
97723.72

> <IC50_uM>
97.72372

> <Activity>
No

> <pIC50>
4.010000009

> <BCI>
0

$$$$

  SciTegic03012415362D

 19 21  0  0  0  0            999 V2000
    2.5981   -1.5000    0.0000 O   0  0
    1.2990   -0.7500    0.0000 C   0  0
    1.2990    0.7500    0.0000 C   0  0
    2.5972    1.5031    0.0000 C   0  0
    2.5951    3.0039    0.0000 C   0  0
    3.8056    3.8680    0.0000 C   0  0
    3.3371    5.2929    0.0000 C   0  0
    1.8371    5.2877    0.0000 C   0  0
    1.3786    3.8595    0.0000 S   0  0
    0.0000    1.5000    0.0000 C   0  0
   -1.2990    0.7500    0.0000 N   0  0
   -1.2990   -0.7500    0.0000 C   0  0
    0.0000   -1.5000    0.0000 C   0  0
   -0.0031   -3.0008    0.0000 C   0  0
   -1.3039   -3.7494    0.0000 C   0  0
   -1.4469   -5.2298    0.0000 C   0  0
   -2.9152   -5.5365    0.0000 C   0  0
   -3.6607   -4.2349    0.0000 C   0  0
   -2.6531   -3.1237    0.0000 S   0  0
  1  2  2  0
  2  3  1  0
  3  4  2  0
  4  5  1  0
  5  6  2  0
  6  7  1  0
  7  8  2  0
  8  9  1  0
  9  5  1  0
  3 10  1  0
 10 11  1  0
 11 12  1  0
 12 13  1  0
 13  2  1  0
 13 14  2  0
 14 15  1  0
 15 16  2  0
 16 17  1  0
 17 18  2  0
 18 19  1  0
 19 15  1  0
M  END
> <Smiles>
O=C1/C(=C/c2cccs2)CNC/C1=C\c1cccs1

> <ID>
CHEMBL1076756

> <standard_value>
98800

> <IC50_uM>
98.8

> <Activity>
No

> <pIC50>
4.005243055

> <BCI>
0

$$$$

  SciTegic03012415362D

 23 26  0  0  0  0            999 V2000
    3.8983   -0.7459    0.0000 C   0  0
    2.6003   -1.4977    0.0000 O   0  0
    1.2990   -0.7500    0.0000 C   0  0
    1.2990    0.7500    0.0000 C   0  0
    0.0000    1.5000    0.0000 C   0  0
    0.0000    3.0000    0.0000 C   0  0
   -1.2991    3.7500    0.0000 C   0  0
   -2.5981    3.0000    0.0000 O   0  0
   -2.5981    1.5000    0.0000 C   0  0
   -3.8971    0.7500    0.0000 O   0  0
   -1.2990    0.7500    0.0000 C   0  0
   -1.2990   -0.7500    0.0000 C   0  0
    0.0000   -1.5000    0.0000 C   0  0
   -0.0031   -3.0008    0.0000 O   0  0
   -1.3032   -3.7490    0.0000 C   0  0
   -0.9876    5.2165    0.0000 C   0  0
   -1.8692    6.4288    0.0000 C   0  0
   -1.2591    7.7991    0.0000 C   0  0
    0.2327    7.9559    0.0000 C   0  0
    1.1144    6.7424    0.0000 C   0  0
    0.5042    5.3733    0.0000 C   0  0
    1.1143    4.0030    0.0000 C   0  0
    2.5815    3.6910    0.0000 O   0  0
  1  2  1  0
  2  3  1  0
  3  4  2  0
  4  5  1  0
  5  6  1  0
  6  7  2  0
  7  8  1  0
  8  9  1  0
  9 10  2  0
  9 11  1  0
 11  5  2  0
 11 12  1  0
 12 13  2  0
 13  3  1  0
 13 14  1  0
 14 15  1  0
  7 16  1  0
 16 17  2  0
 17 18  1  0
 18 19  2  0
 19 20  1  0
 20 21  2  0
 21 16  1  0
 21 22  1  0
 22  6  1  0
 22 23  2  0
M  END
> <Smiles>
COc1cc2c3c(oc(=O)c2cc1OC)-c1ccccc1C3=O

> <ID>
CHEMBL379551

> <standard_value>
100000

> <IC50_uM>
100

> <Activity>
No

> <pIC50>
4

> <BCI>
0

$$$$

  SciTegic03012415362D

 29 34  0  0  0  0            999 V2000
   -4.1318   -4.3419    0.0000 C   0  0
   -2.7284   -4.8714    0.0000 C   0  0
   -1.5681   -3.9207    0.0000 C   0  0
   -1.8112   -2.4405    0.0000 C   0  0
   -0.6522   -1.4871    0.0000 C   0  0  3  0  0  0
    0.7528   -2.0145    0.0000 C   0  0
    1.9130   -1.0635    0.0000 C   0  0
    3.3166   -1.5926    0.0000 C   0  0
    3.5601   -3.0727    0.0000 C   0  0
    4.9644   -3.6021    0.0000 N   0  0
    6.1261   -2.6529    0.0000 C   0  0
    7.5288   -3.1843    0.0000 C   0  0
    7.7700   -4.6647    0.0000 O   0  0
    6.6085   -5.6139    0.0000 C   0  0
    5.2058   -5.0826    0.0000 C   0  0
    2.4001   -4.0237    0.0000 C   0  0
    0.9966   -3.4946    0.0000 C   0  0
   -0.8987    0.0000    0.0000 C   0  0  3  0  0  0
   -2.0541   -1.3755    0.0000 C   0  0
   -0.6052   -0.9721    0.0000 C   0  0  3  0  0  0
   -0.6052    0.5686    0.0000 C   0  0
    0.4035    1.7790    0.0000 C   0  0  3  0  0  0
    1.7790    1.2105    0.0000 C   0  0
    1.7607   -0.2751    0.0000 C   0  0  3  0  0  0
    0.7703   -1.5223    0.0000 C   0  0
    0.3852   -0.6052    0.0000 C   0  0
   -0.8987    1.3205    0.0000 C   0  0
   -3.2147   -1.9111    0.0000 C   0  0
   -4.3750   -2.8618    0.0000 C   0  0
  1  2  2  0
  2  3  1  0
  3  4  2  0
  5  4  1  4
  5  6  1  0
  6  7  2  0
  7  8  1  0
  8  9  2  0
  9 10  1  0
 10 11  1  0
 11 12  1  0
 12 13  1  0
 13 14  1  0
 14 15  1  0
 15 10  1  0
  9 16  1  0
 16 17  2  0
 17  6  1  0
  5 18  1  0
 18 19  1  4
 20 19  1  4
 20 21  1  0
 22 21  1  4
 22 23  1  0
 24 23  1  4
 24 25  1  0
 25 20  1  0
 24 26  1  0
 26 18  1  0
 22 27  1  0
 27 18  1  0
  4 28  1  0
 28 29  2  0
 29  1  1  0
M  END
> <Smiles>
c1ccc(C(c2ccc(N3CCOCC3)cc2)C23CC4CC(CC(C4)C2)C3)cc1

> <ID>
CHEMBL2023828

> <standard_value>
100000

> <IC50_uM>
100

> <Activity>
No

> <pIC50>
4

> <BCI>
0

$$$$

  SciTegic03012415362D

 36 42  0  0  0  0            999 V2000
  -12.9848   -6.5307    0.0000 C   0  0
  -12.7491   -8.0121    0.0000 C   0  0
  -11.3484   -8.5486    0.0000 C   0  0
  -10.1833   -7.6038    0.0000 C   0  0
   -8.7806   -8.1378    0.0000 C   0  0
   -7.6163   -7.1909    0.0000 N   0  0
   -6.2137   -7.7226    0.0000 C   0  0
   -5.0519   -6.7737    0.0000 C   0  0
   -5.2926   -5.2931    0.0000 N   0  0
   -4.1318   -4.3419    0.0000 C   0  0
   -2.7284   -4.8714    0.0000 C   0  0
   -1.5681   -3.9207    0.0000 C   0  0
   -1.8112   -2.4405    0.0000 C   0  0
   -0.6522   -1.4871    0.0000 C   0  0  3  0  0  0
    0.7528   -2.0145    0.0000 C   0  0
    1.9130   -1.0635    0.0000 C   0  0
    3.3166   -1.5926    0.0000 C   0  0
    3.5601   -3.0727    0.0000 C   0  0
    2.4001   -4.0237    0.0000 C   0  0
    0.9966   -3.4946    0.0000 C   0  0
   -0.8987    0.0000    0.0000 C   0  0  3  0  0  0
   -2.0541   -1.3755    0.0000 C   0  0
   -0.6052   -0.9721    0.0000 C   0  0  3  0  0  0
   -0.6052    0.5686    0.0000 C   0  0
    0.4035    1.7790    0.0000 C   0  0  3  0  0  0
    1.7790    1.2105    0.0000 C   0  0
    1.7607   -0.2751    0.0000 C   0  0  3  0  0  0
    0.7703   -1.5223    0.0000 C   0  0
    0.3852   -0.6052    0.0000 C   0  0
   -0.8987    1.3205    0.0000 C   0  0
   -3.2147   -1.9111    0.0000 C   0  0
   -4.3750   -2.8618    0.0000 C   0  0
   -6.6953   -4.7615    0.0000 C   0  0
   -7.8571   -5.7103    0.0000 C   0  0
  -10.4190   -6.1224    0.0000 C   0  0
  -11.8198   -5.5859    0.0000 C   0  0
  1  2  2  0
  2  3  1  0
  3  4  2  0
  4  5  1  0
  5  6  1  0
  6  7  1  0
  7  8  1  0
  8  9  1  0
  9 10  1  0
 10 11  2  0
 11 12  1  0
 12 13  2  0
 14 13  1  4
 14 15  1  0
 15 16  2  0
 16 17  1  0
 17 18  2  0
 18 19  1  0
 19 20  2  0
 20 15  1  0
 14 21  1  0
 21 22  1  4
 23 22  1  4
 23 24  1  0
 25 24  1  4
 25 26  1  0
 27 26  1  4
 27 28  1  0
 28 23  1  0
 27 29  1  0
 29 21  1  0
 25 30  1  0
 30 21  1  0
 13 31  1  0
 31 32  2  0
 32 10  1  0
  9 33  1  0
 33 34  1  0
 34  6  1  0
  4 35  1  0
 35 36  2  0
 36  1  1  0
M  END
> <Smiles>
c1ccc(CN2CCN(c3ccc(C(c4ccccc4)C45CC6CC(CC(C6)C4)C5)cc3)CC2)cc1

> <ID>
CHEMBL2023826

> <standard_value>
100000

> <IC50_uM>
100

> <Activity>
No

> <pIC50>
4

> <BCI>
0

$$$$

  SciTegic03012415362D

 40 41  0  0  1  0            999 V2000
    3.2310  -17.7628    0.0000 C   0  0
    2.3519  -16.5475    0.0000 C   0  0
    2.9643  -15.1773    0.0000 C   0  0
    2.0846  -13.9613    0.0000 C   0  0
    2.6971  -12.5911    0.0000 C   0  0
    1.8174  -11.3750    0.0000 C   0  0
    2.4298  -10.0049    0.0000 C   0  0
    1.5502   -8.7888    0.0000 C   0  0
    2.1626   -7.4186    0.0000 C   0  0
    1.2830   -6.2026    0.0000 C   0  0
    1.8954   -4.8324    0.0000 C   0  0
    1.0157   -3.6164    0.0000 C   0  0
    1.6281   -2.2462    0.0000 C   0  0  1  0  0  0
    3.1202   -2.0921    0.0000 O   0  0
    0.7500   -1.0323    0.0000 C   0  0  1  0  0  0
    1.2135    0.3943    0.0000 C   0  0
    0.0000    1.2760    0.0000 C   0  0
   -1.2135    0.3943    0.0000 C   0  0  2  0  0  0
   -2.6391    0.8554    0.0000 C   0  0  2  0  0  0
   -3.7521   -0.1502    0.0000 O   0  0
   -2.9540    2.3228    0.0000 C   0  0
   -4.3820    2.7846    0.0000 C   0  0
   -4.6970    4.2520    0.0000 C   0  0
   -6.1249    4.7139    0.0000 C   0  0
   -6.4399    6.1813    0.0000 C   0  0
   -7.8679    6.6432    0.0000 C   0  0
   -8.1828    8.1106    0.0000 C   0  0
   -9.6108    8.5724    0.0000 C   0  0
   -9.9258   10.0398    0.0000 C   0  0
  -11.3537   10.5017    0.0000 C   0  0
  -11.6687   11.9691    0.0000 N   0  0
  -13.0967   12.4310    0.0000 C   0  0
  -14.2097   11.4254    0.0000 O   0  0
  -13.4116   13.8984    0.0000 C   0  0
  -12.4033   14.9917    0.0000 C   0  0
  -13.1532   16.2908    0.0000 C   0  0
  -14.6204   15.9790    0.0000 N   0  0
  -14.7773   14.4872    0.0000 N   0  0
  -16.0719   13.7296    0.0000 C   0  0
   -0.7500   -1.0323    0.0000 O   0  0
  1  2  1  0
  2  3  1  0
  3  4  1  0
  4  5  1  0
  5  6  1  0
  6  7  1  0
  7  8  1  0
  8  9  1  0
  9 10  1  0
 10 11  1  0
 11 12  1  0
 12 13  1  0
 13 14  1  6
 13 15  1  0
 15 16  1  6
 16 17  1  0
 18 17  1  1
 18 19  1  0
 19 20  1  6
 19 21  1  0
 21 22  1  0
 22 23  1  0
 23 24  1  0
 24 25  1  0
 25 26  1  0
 26 27  1  0
 27 28  1  0
 28 29  1  0
 29 30  1  0
 30 31  1  0
 31 32  1  0
 32 33  2  0
 32 34  1  0
 34 35  2  0
 35 36  1  0
 36 37  2  0
 37 38  1  0
 38 34  1  0
 38 39  1  0
 18 40  1  0
 40 15  1  0
M  END
> <Smiles>
CCCCCCCCCCCC[C@@H](O)[C@H]1CC[C@H]([C@H](O)CCCCCCCCCCNC(=O)c2ccnn2C)O1

> <ID>
CHEMBL2381620

> <standard_value>
100000

> <IC50_uM>
100

> <Activity>
No

> <pIC50>
4

> <BCI>
0

$$$$

  SciTegic03012415362D

 18 22  0  0  0  0            999 V2000
    1.2990   -0.7500    0.0000 C   0  0
    1.2990    0.7500    0.0000 C   0  0
    0.0000    1.5000    0.0000 C   0  0
   -1.2990    0.7500    0.0000 C   0  0
   -1.2990   -0.7500    0.0000 C   0  0
    0.0000   -1.5000    0.0000 C   0  0
   -2.5981   -1.5000    0.0000 C   0  0
   -3.8971   -0.7500    0.0000 N   0  0
   -3.8971    0.7500    0.0000 C   0  0  3  0  0  0
   -5.1962    1.5000    0.0000 C   0  0  3  0  0  0
   -5.1962    3.0000    0.0000 C   0  0
   -3.8971    3.7500    0.0000 C   0  0  3  0  0  0
   -5.1962    3.0000    0.0000 C   0  0
   -5.1962    1.5000    0.0000 C   0  0  3  0  0  0
   -5.9350    1.4800    0.0000 C   0  0
   -3.8971    0.7500    0.0000 C   0  0
   -2.5981    1.5000    0.0000 C   0  0  3  0  0  0
   -2.5981    3.0000    0.0000 C   0  0
  1  2  2  0
  2  3  1  0
  3  4  2  0
  4  5  1  0
  5  6  2  0
  6  1  1  0
  5  7  1  0
  7  8  1  0
  9  8  1  4
  9 10  1  0
 10 11  1  4
 12 11  1  4
 12 13  1  0
 14 13  1  4
 14 15  1  0
 15 10  1  0
 14 16  1  0
 17 16  1  4
 17  4  1  0
 17  9  1  0
 17 18  1  0
 18 12  1  0
M  END
> <Smiles>
c1ccc2c(c1)CNC1C3CC4CC(C3)CC21C4

> <ID>
CHEMBL2430843

> <standard_value>
100000

> <IC50_uM>
100

> <Activity>
No

> <pIC50>
4

> <BCI>
0

$$$$

  SciTegic03012415362D

 17 20  0  0  0  0            999 V2000
   -3.3155   -2.1873    0.0000 N   0  0
   -2.0541   -1.3755    0.0000 C   0  0  3  0  0  0
   -0.8987    0.0000    0.0000 C   0  0  3  0  0  0
    0.3852   -0.6052    0.0000 C   0  0
    1.7607   -0.2751    0.0000 C   0  0  3  0  0  0
    1.7790    1.2105    0.0000 C   0  0
    0.4035    1.7790    0.0000 C   0  0  3  0  0  0
   -0.8987    1.3205    0.0000 C   0  0
   -0.6052    0.5686    0.0000 C   0  0
   -0.6052   -0.9721    0.0000 C   0  0  3  0  0  0
    0.8503   -0.6065    0.0000 C   0  0
    1.8942   -1.6837    0.0000 C   0  0
    3.3490   -1.3183    0.0000 C   0  0
    3.7599    0.1243    0.0000 C   0  0
    2.7161    1.2015    0.0000 C   0  0
    1.2613    0.8361    0.0000 C   0  0
    0.7703   -1.5223    0.0000 C   0  0
  2  1  1  4
  2  3  1  0
  3  4  1  4
  5  4  1  4
  5  6  1  0
  7  6  1  4
  7  8  1  0
  8  3  1  0
  7  9  1  0
  9 10  1  0
 10  2  1  0
 10 11  1  4
 11 12  2  0
 12 13  1  0
 13 14  2  0
 14 15  1  0
 15 16  2  0
 16 11  1  0
 10 17  1  0
 17  5  1  0
M  END
> <Smiles>
Cl.NC1C2CC3CC(C2)CC1(c1ccccc1)C3

> <ID>
CHEMBL2430837

> <standard_value>
100000

> <IC50_uM>
100

> <Activity>
No

> <pIC50>
4

> <BCI>
0

> <RemovedSalts>
HCl

$$$$

  SciTegic03012415362D

 25 28  0  0  0  0            999 V2000
   -5.2649   -4.1084    0.0000 O   0  0
   -4.3533   -5.2996    0.0000 C   0  0
   -2.8675   -5.1069    0.0000 C   0  0
   -1.8348   -6.1949    0.0000 C   0  0
   -0.4810   -5.5489    0.0000 C   0  0
   -0.6928   -4.0817    0.0000 C   0  0
    0.3114   -2.9665    0.0000 C   0  0
    1.8032   -3.1233    0.0000 N   0  0
    2.4133   -1.7530    0.0000 N   0  0
    3.8794   -1.4442    0.0000 C   0  0
    4.8823   -2.5608    0.0000 C   0  0
    6.3506   -2.2538    0.0000 C   0  0
    6.8188   -0.8288    0.0000 F   0  0
    7.3506   -3.3718    0.0000 C   0  0
    6.8824   -4.7969    0.0000 C   0  0
    5.4142   -5.1039    0.0000 C   0  0
    4.4142   -3.9859    0.0000 C   0  0
    2.9459   -4.2930    0.0000 F   0  0
    1.2990   -0.7500    0.0000 C   0  0
    1.2990    0.7500    0.0000 C   0  0
    0.0000    1.5000    0.0000 C   0  0
   -1.2990    0.7500    0.0000 C   0  0
   -1.2990   -0.7500    0.0000 C   0  0
    0.0000   -1.5000    0.0000 C   0  0
   -2.1519   -3.7886    0.0000 O   0  0
  1  2  1  0
  2  3  1  0
  3  4  2  0
  4  5  1  0
  5  6  2  0
  6  7  1  0
  7  8  2  0
  8  9  1  0
  9 10  1  0
 10 11  1  0
 11 12  2  0
 12 13  1  0
 12 14  1  0
 14 15  2  0
 15 16  1  0
 16 17  2  0
 17 11  1  0
 17 18  1  0
  9 19  1  0
 19 20  2  0
 20 21  1  0
 21 22  2  0
 22 23  1  0
 23 24  2  0
 24  7  1  0
 24 19  1  0
  6 25  1  0
 25  3  1  0
M  END
> <Smiles>
OCc1ccc(-c2nn(Cc3c(F)cccc3F)c3ccccc23)o1

> <ID>
CHEMBL434085

> <standard_value>
100000

> <IC50_uM>
100

> <Activity>
No

> <pIC50>
4

> <BCI>
0

$$$$

  SciTegic03012415362D

 39 40  0  0  1  0            999 V2000
    3.2310  -17.7628    0.0000 C   0  0
    2.3519  -16.5475    0.0000 C   0  0
    2.9643  -15.1773    0.0000 C   0  0
    2.0846  -13.9613    0.0000 C   0  0
    2.6971  -12.5911    0.0000 C   0  0
    1.8174  -11.3750    0.0000 C   0  0
    2.4298  -10.0049    0.0000 C   0  0
    1.5502   -8.7888    0.0000 C   0  0
    2.1626   -7.4186    0.0000 C   0  0
    1.2830   -6.2026    0.0000 C   0  0
    1.8954   -4.8324    0.0000 C   0  0
    1.0157   -3.6164    0.0000 C   0  0
    1.6281   -2.2462    0.0000 C   0  0  1  0  0  0
    3.1202   -2.0921    0.0000 O   0  0
    0.7500   -1.0323    0.0000 C   0  0  1  0  0  0
    1.2135    0.3943    0.0000 C   0  0
    0.0000    1.2760    0.0000 C   0  0
   -1.2135    0.3943    0.0000 C   0  0  2  0  0  0
   -2.6391    0.8554    0.0000 C   0  0  2  0  0  0
   -3.7521   -0.1502    0.0000 O   0  0
   -2.9540    2.3228    0.0000 C   0  0
   -4.3820    2.7846    0.0000 C   0  0
   -4.6970    4.2520    0.0000 C   0  0
   -6.1249    4.7139    0.0000 C   0  0
   -6.4399    6.1813    0.0000 C   0  0
   -7.8679    6.6432    0.0000 C   0  0
   -8.1828    8.1106    0.0000 C   0  0
   -9.6108    8.5724    0.0000 C   0  0
   -9.9258   10.0398    0.0000 C   0  0
  -11.3537   10.5017    0.0000 C   0  0
  -11.6687   11.9691    0.0000 N   0  0
  -13.0967   12.4310    0.0000 C   0  0
  -14.2097   11.4254    0.0000 O   0  0
  -13.4116   13.8984    0.0000 C   0  0
  -14.7773   14.4872    0.0000 C   0  0
  -14.6204   15.9790    0.0000 C   0  0
  -13.1532   16.2907    0.0000 C   0  0
  -12.4033   14.9917    0.0000 O   0  0
   -0.7500   -1.0323    0.0000 O   0  0
  1  2  1  0
  2  3  1  0
  3  4  1  0
  4  5  1  0
  5  6  1  0
  6  7  1  0
  7  8  1  0
  8  9  1  0
  9 10  1  0
 10 11  1  0
 11 12  1  0
 12 13  1  0
 13 14  1  6
 13 15  1  0
 15 16  1  6
 16 17  1  0
 18 17  1  1
 18 19  1  0
 19 20  1  6
 19 21  1  0
 21 22  1  0
 22 23  1  0
 23 24  1  0
 24 25  1  0
 25 26  1  0
 26 27  1  0
 27 28  1  0
 28 29  1  0
 29 30  1  0
 30 31  1  0
 31 32  1  0
 32 33  2  0
 32 34  1  0
 34 35  2  0
 35 36  1  0
 36 37  2  0
 37 38  1  0
 38 34  1  0
 18 39  1  0
 39 15  1  0
M  END
> <Smiles>
CCCCCCCCCCCC[C@@H](O)[C@H]1CC[C@H]([C@H](O)CCCCCCCCCCNC(=O)c2ccco2)O1

> <ID>
CHEMBL3329347

> <standard_value>
100000

> <IC50_uM>
100

> <Activity>
No

> <pIC50>
4

> <BCI>
0

$$$$

  SciTegic03012415362D

 39 40  0  0  1  0            999 V2000
    3.2310  -17.7628    0.0000 C   0  0
    2.3519  -16.5475    0.0000 C   0  0
    2.9643  -15.1773    0.0000 C   0  0
    2.0846  -13.9613    0.0000 C   0  0
    2.6971  -12.5911    0.0000 C   0  0
    1.8174  -11.3750    0.0000 C   0  0
    2.4298  -10.0049    0.0000 C   0  0
    1.5502   -8.7888    0.0000 C   0  0
    2.1626   -7.4186    0.0000 C   0  0
    1.2830   -6.2026    0.0000 C   0  0
    1.8954   -4.8324    0.0000 C   0  0
    1.0157   -3.6164    0.0000 C   0  0
    1.6281   -2.2462    0.0000 C   0  0  1  0  0  0
    3.1202   -2.0921    0.0000 O   0  0
    0.7500   -1.0323    0.0000 C   0  0  1  0  0  0
    1.2135    0.3943    0.0000 C   0  0
    0.0000    1.2760    0.0000 C   0  0
   -1.2135    0.3943    0.0000 C   0  0  2  0  0  0
   -2.6391    0.8554    0.0000 C   0  0  2  0  0  0
   -3.7521   -0.1502    0.0000 O   0  0
   -2.9540    2.3228    0.0000 C   0  0
   -4.3820    2.7846    0.0000 C   0  0
   -4.6970    4.2520    0.0000 C   0  0
   -6.1249    4.7139    0.0000 C   0  0
   -6.4399    6.1813    0.0000 C   0  0
   -7.8679    6.6432    0.0000 C   0  0
   -8.1828    8.1106    0.0000 C   0  0
   -9.6108    8.5724    0.0000 C   0  0
   -9.9258   10.0398    0.0000 C   0  0
  -11.3537   10.5017    0.0000 C   0  0
  -11.6687   11.9691    0.0000 N   0  0
  -13.0967   12.4310    0.0000 C   0  0
  -14.2097   11.4254    0.0000 O   0  0
  -13.4116   13.8984    0.0000 C   0  0
  -14.7773   14.4872    0.0000 C   0  0
  -14.6204   15.9790    0.0000 C   0  0
  -13.1532   16.2907    0.0000 O   0  0
  -12.4033   14.9917    0.0000 C   0  0
   -0.7500   -1.0323    0.0000 O   0  0
  1  2  1  0
  2  3  1  0
  3  4  1  0
  4  5  1  0
  5  6  1  0
  6  7  1  0
  7  8  1  0
  8  9  1  0
  9 10  1  0
 10 11  1  0
 11 12  1  0
 12 13  1  0
 13 14  1  6
 13 15  1  0
 15 16  1  6
 16 17  1  0
 18 17  1  1
 18 19  1  0
 19 20  1  6
 19 21  1  0
 21 22  1  0
 22 23  1  0
 23 24  1  0
 24 25  1  0
 25 26  1  0
 26 27  1  0
 27 28  1  0
 28 29  1  0
 29 30  1  0
 30 31  1  0
 31 32  1  0
 32 33  2  0
 32 34  1  0
 34 35  1  0
 35 36  2  0
 36 37  1  0
 37 38  1  0
 38 34  2  0
 18 39  1  0
 39 15  1  0
M  END
> <Smiles>
CCCCCCCCCCCC[C@@H](O)[C@H]1CC[C@H]([C@H](O)CCCCCCCCCCNC(=O)c2ccoc2)O1

> <ID>
CHEMBL3329348

> <standard_value>
100000

> <IC50_uM>
100

> <Activity>
No

> <pIC50>
4

> <BCI>
0

$$$$

  SciTegic03012415362D

 39 40  0  0  1  0            999 V2000
    3.2310  -17.7628    0.0000 C   0  0
    2.3519  -16.5475    0.0000 C   0  0
    2.9643  -15.1773    0.0000 C   0  0
    2.0846  -13.9613    0.0000 C   0  0
    2.6971  -12.5911    0.0000 C   0  0
    1.8174  -11.3750    0.0000 C   0  0
    2.4298  -10.0049    0.0000 C   0  0
    1.5502   -8.7888    0.0000 C   0  0
    2.1626   -7.4186    0.0000 C   0  0
    1.2830   -6.2026    0.0000 C   0  0
    1.8954   -4.8324    0.0000 C   0  0
    1.0157   -3.6164    0.0000 C   0  0
    1.6281   -2.2462    0.0000 C   0  0  1  0  0  0
    3.1202   -2.0921    0.0000 O   0  0
    0.7500   -1.0323    0.0000 C   0  0  1  0  0  0
    1.2135    0.3943    0.0000 C   0  0
    0.0000    1.2760    0.0000 C   0  0
   -1.2135    0.3943    0.0000 C   0  0  2  0  0  0
   -2.6391    0.8554    0.0000 C   0  0  2  0  0  0
   -3.7521   -0.1502    0.0000 O   0  0
   -2.9540    2.3228    0.0000 C   0  0
   -4.3820    2.7846    0.0000 C   0  0
   -4.6970    4.2520    0.0000 C   0  0
   -6.1249    4.7139    0.0000 C   0  0
   -6.4399    6.1813    0.0000 C   0  0
   -7.8679    6.6432    0.0000 C   0  0
   -8.1828    8.1106    0.0000 C   0  0
   -9.6108    8.5724    0.0000 C   0  0
   -9.9258   10.0398    0.0000 C   0  0
  -11.3537   10.5017    0.0000 C   0  0
  -11.6687   11.9691    0.0000 N   0  0
  -13.0967   12.4310    0.0000 C   0  0
  -14.2097   11.4254    0.0000 O   0  0
  -13.4116   13.8984    0.0000 C   0  0
  -14.7773   14.4872    0.0000 C   0  0
  -14.6204   15.9790    0.0000 C   0  0
  -13.1532   16.2907    0.0000 S   0  0
  -12.4033   14.9917    0.0000 C   0  0
   -0.7500   -1.0323    0.0000 O   0  0
  1  2  1  0
  2  3  1  0
  3  4  1  0
  4  5  1  0
  5  6  1  0
  6  7  1  0
  7  8  1  0
  8  9  1  0
  9 10  1  0
 10 11  1  0
 11 12  1  0
 12 13  1  0
 13 14  1  6
 13 15  1  0
 15 16  1  6
 16 17  1  0
 18 17  1  1
 18 19  1  0
 19 20  1  6
 19 21  1  0
 21 22  1  0
 22 23  1  0
 23 24  1  0
 24 25  1  0
 25 26  1  0
 26 27  1  0
 27 28  1  0
 28 29  1  0
 29 30  1  0
 30 31  1  0
 31 32  1  0
 32 33  2  0
 32 34  1  0
 34 35  1  0
 35 36  2  0
 36 37  1  0
 37 38  1  0
 38 34  2  0
 18 39  1  0
 39 15  1  0
M  END
> <Smiles>
CCCCCCCCCCCC[C@@H](O)[C@H]1CC[C@H]([C@H](O)CCCCCCCCCCNC(=O)c2ccsc2)O1

> <ID>
CHEMBL3329350

> <standard_value>
100000

> <IC50_uM>
100

> <Activity>
No

> <pIC50>
4

> <BCI>
0

$$$$

  SciTegic03012415362D

 39 40  0  0  1  0            999 V2000
    3.2310  -17.7628    0.0000 C   0  0
    2.3519  -16.5475    0.0000 C   0  0
    2.9643  -15.1773    0.0000 C   0  0
    2.0846  -13.9613    0.0000 C   0  0
    2.6971  -12.5911    0.0000 C   0  0
    1.8174  -11.3750    0.0000 C   0  0
    2.4298  -10.0049    0.0000 C   0  0
    1.5502   -8.7888    0.0000 C   0  0
    2.1626   -7.4186    0.0000 C   0  0
    1.2830   -6.2026    0.0000 C   0  0
    1.8954   -4.8324    0.0000 C   0  0
    1.0157   -3.6164    0.0000 C   0  0
    1.6281   -2.2462    0.0000 C   0  0  1  0  0  0
    3.1202   -2.0921    0.0000 O   0  0
    0.7500   -1.0323    0.0000 C   0  0  1  0  0  0
    1.2135    0.3943    0.0000 C   0  0
    0.0000    1.2760    0.0000 C   0  0
   -1.2135    0.3943    0.0000 C   0  0  2  0  0  0
   -2.6391    0.8554    0.0000 C   0  0  2  0  0  0
   -3.7521   -0.1502    0.0000 O   0  0
   -2.9540    2.3228    0.0000 C   0  0
   -4.3820    2.7846    0.0000 C   0  0
   -4.6970    4.2520    0.0000 C   0  0
   -6.1249    4.7139    0.0000 C   0  0
   -6.4399    6.1813    0.0000 C   0  0
   -7.8679    6.6432    0.0000 C   0  0
   -8.1828    8.1106    0.0000 C   0  0
   -9.6108    8.5724    0.0000 C   0  0
   -9.9258   10.0398    0.0000 C   0  0
  -11.3537   10.5017    0.0000 C   0  0
  -11.6687   11.9691    0.0000 N   0  0
  -13.0967   12.4310    0.0000 C   0  0
  -14.2097   11.4254    0.0000 O   0  0
  -13.4116   13.8984    0.0000 C   0  0
  -14.7773   14.4872    0.0000 C   0  0
  -14.6204   15.9790    0.0000 N   0  0
  -13.1532   16.2907    0.0000 C   0  0
  -12.4033   14.9917    0.0000 S   0  0
   -0.7500   -1.0323    0.0000 O   0  0
  1  2  1  0
  2  3  1  0
  3  4  1  0
  4  5  1  0
  5  6  1  0
  6  7  1  0
  7  8  1  0
  8  9  1  0
  9 10  1  0
 10 11  1  0
 11 12  1  0
 12 13  1  0
 13 14  1  6
 13 15  1  0
 15 16  1  6
 16 17  1  0
 18 17  1  1
 18 19  1  0
 19 20  1  6
 19 21  1  0
 21 22  1  0
 22 23  1  0
 23 24  1  0
 24 25  1  0
 25 26  1  0
 26 27  1  0
 27 28  1  0
 28 29  1  0
 29 30  1  0
 30 31  1  0
 31 32  1  0
 32 33  2  0
 32 34  1  0
 34 35  2  0
 35 36  1  0
 36 37  2  0
 37 38  1  0
 38 34  1  0
 18 39  1  0
 39 15  1  0
M  END
> <Smiles>
CCCCCCCCCCCC[C@@H](O)[C@H]1CC[C@H]([C@H](O)CCCCCCCCCCNC(=O)c2cncs2)O1

> <ID>
CHEMBL3329351

> <standard_value>
100000

> <IC50_uM>
100

> <Activity>
No

> <pIC50>
4

> <BCI>
0

$$$$

  SciTegic03012415362D

 31 34  0  0  1  0            999 V2000
    2.5981   -1.5000    0.0000 O   0  0
    1.2990   -0.7500    0.0000 C   0  0
    1.2990    0.7500    0.0000 C   0  0
    0.0000    1.5000    0.0000 C   0  0
    0.0000    3.0000    0.0000 O   0  0
   -1.2990    0.7500    0.0000 C   0  0
   -1.2990   -0.7500    0.0000 C   0  0
    0.0000   -1.5000    0.0000 C   0  0
   -2.5981   -1.5000    0.0000 O   0  0
   -3.8971   -0.7500    0.0000 C   0  0  2  0  0  0
   -5.1968   -1.5004    0.0000 C   0  0
   -6.4971   -0.7525    0.0000 C   0  0
   -7.7950   -1.5046    0.0000 C   0  0
   -7.7926   -3.0046    0.0000 C   0  0
   -9.0904   -3.7566    0.0000 O   0  0
   -6.4924   -3.7525    0.0000 C   0  0
   -6.4900   -5.2525    0.0000 O   0  0
   -5.1945   -3.0005    0.0000 C   0  0
   -3.8971    0.7500    0.0000 C   0  0  2  0  0  0
   -5.1984    1.4977    0.0000 O   0  0
   -6.4971    0.7455    0.0000 C   0  0
   -7.7984    1.4932    0.0000 C   0  0
   -9.0975    0.7432    0.0000 C   0  0
  -10.3965    1.4932    0.0000 C   0  0
  -11.6956    0.7431    0.0000 F   0  0
  -10.3966    2.9932    0.0000 C   0  0
  -11.6956    3.7431    0.0000 F   0  0
   -9.0976    3.7432    0.0000 C   0  0
   -9.0976    5.2432    0.0000 F   0  0
   -7.7985    2.9932    0.0000 C   0  0
   -2.5981    1.5000    0.0000 C   0  0
  1  2  1  0
  2  3  2  0
  3  4  1  0
  4  5  1  0
  4  6  2  0
  6  7  1  0
  7  8  2  0
  8  2  1  0
  7  9  1  0
  9 10  1  0
 10 11  1  6
 11 12  2  0
 12 13  1  0
 13 14  2  0
 14 15  1  0
 14 16  1  0
 16 17  1  0
 16 18  2  0
 18 11  1  0
 10 19  1  0
 19 20  1  6
 20 21  1  0
 21 22  1  0
 22 23  2  0
 23 24  1  0
 24 25  1  0
 24 26  2  0
 26 27  1  0
 26 28  1  0
 28 29  1  0
 28 30  2  0
 30 22  1  0
 19 31  1  0
 31  6  1  0
M  END
> <Smiles>
Oc1cc(O)c2c(c1)O[C@H](c1ccc(O)c(O)c1)[C@H](OCc1cc(F)c(F)c(F)c1)C2

> <ID>
CHEMBL184443

> <standard_value>
22300

> <IC50_uM>
22.3

> <Activity>
No

> <pIC50>
4.651695137

> <BCI>
0

$$$$

  SciTegic03012415362D

 37 39  0  0  1  0            999 V2000
   23.3994   -1.4611    0.0000 C   0  0
   22.0989   -0.7138    0.0000 C   0  0
   20.8002   -1.4660    0.0000 C   0  0
   19.4989   -0.7183    0.0000 C   0  0
   18.2002   -1.4705    0.0000 C   0  0
   16.8989   -0.7228    0.0000 C   0  0
   15.6002   -1.4751    0.0000 C   0  0
   14.2989   -0.7273    0.0000 C   0  0
   13.0002   -1.4796    0.0000 C   0  0
   11.6990   -0.7319    0.0000 C   0  0
   10.4003   -1.4841    0.0000 C   0  0
    9.0990   -0.7364    0.0000 C   0  0
    7.8003   -1.4887    0.0000 C   0  0
    6.4990   -0.7409    0.0000 C   0  0
    5.2003   -1.4932    0.0000 C   0  0
    3.8990   -0.7455    0.0000 C   0  0
    2.6003   -1.4977    0.0000 O   0  0
    1.2990   -0.7500    0.0000 C   0  0  2  0  0  0
    1.2990    0.7500    0.0000 C   0  0
    0.0000    1.5000    0.0000 C   0  0
    0.0000    3.0000    0.0000 C   0  0
    1.2990    3.7500    0.0000 O   0  0
   -1.2991    3.7500    0.0000 C   0  0
   -2.5981    3.0000    0.0000 C   0  0
   -3.8971    3.7500    0.0000 O   0  0
   -2.5981    1.5000    0.0000 C   0  0
   -1.2990    0.7500    0.0000 C   0  0
   -1.2990   -0.7500    0.0000 O   0  0
    0.0000   -1.5000    0.0000 C   0  0  2  0  0  0
    0.0000   -3.0008    0.0000 C   0  0
    1.2979   -3.7529    0.0000 C   0  0
    1.2955   -5.2529    0.0000 C   0  0
   -0.0047   -6.0009    0.0000 C   0  0
   -0.0071   -7.5009    0.0000 O   0  0
   -1.3026   -5.2488    0.0000 C   0  0
   -2.6028   -5.9967    0.0000 O   0  0
   -1.3002   -3.7488    0.0000 C   0  0
  1  2  1  0
  2  3  1  0
  3  4  1  0
  4  5  1  0
  5  6  1  0
  6  7  1  0
  7  8  1  0
  8  9  1  0
  9 10  1  0
 10 11  1  0
 11 12  1  0
 12 13  1  0
 13 14  1  0
 14 15  1  0
 15 16  1  0
 16 17  1  0
 18 17  1  1
 18 19  1  0
 19 20  1  0
 20 21  2  0
 21 22  1  0
 21 23  1  0
 23 24  2  0
 24 25  1  0
 24 26  1  0
 26 27  2  0
 27 20  1  0
 27 28  1  0
 28 29  1  0
 29 18  1  0
 29 30  1  1
 30 31  2  0
 31 32  1  0
 32 33  2  0
 33 34  1  0
 33 35  1  0
 35 36  1  0
 35 37  2  0
 37 30  1  0
M  END
> <Smiles>
CCCCCCCCCCCCCCCCO[C@@H]1Cc2c(O)cc(O)cc2O[C@@H]1c1ccc(O)c(O)c1

> <ID>
CHEMBL361363

> <standard_value>
22500

> <IC50_uM>
22.5

> <Activity>
No

> <pIC50>
4.647817482

> <BCI>
0

$$$$

  SciTegic03012415362D

 33 36  0  0  0  0            999 V2000
    4.8089   -4.6669    0.0000 C   0  0
    4.2010   -3.2956    0.0000 C   0  0
    4.9531   -1.9978    0.0000 C   0  0
    3.9511   -0.8815    0.0000 C   0  0
    4.2567    0.5852    0.0000 C   0  0
    3.1377    1.5840    0.0000 N   0  0
    5.6811    1.0554    0.0000 O   0  0
    2.5987   -1.5004    0.0000 C   0  0
    1.2990   -0.7500    0.0000 C   0  0
    1.2990    0.7500    0.0000 C   0  0
    0.0000    1.5000    0.0000 C   0  0
   -1.2990    0.7500    0.0000 C   0  0
   -1.2990   -0.7500    0.0000 C   0  0
   -2.5972   -1.5031    0.0000 O   0  0
   -2.5951   -3.0039    0.0000 C   0  0
   -1.2948   -3.7517    0.0000 O   0  0
   -3.8933   -3.7570    0.0000 N   0  0
   -3.8912   -5.2578    0.0000 C   0  0
   -5.1894   -6.0109    0.0000 C   0  0
   -5.1872   -7.5117    0.0000 N   0  0
   -6.4836   -8.2663    0.0000 C   0  0
   -6.4784   -9.7663    0.0000 C   0  0
   -5.1768  -10.5118    0.0000 N   0  0
   -5.1716  -12.0126    0.0000 C   0  0
   -6.4669  -12.7692    0.0000 C   0  0
   -6.4593  -14.2692    0.0000 C   0  0
   -5.1565  -15.0126    0.0000 C   0  0
   -3.8612  -14.2561    0.0000 C   0  0
   -3.8688  -12.7561    0.0000 C   0  0
   -3.8804   -9.7573    0.0000 C   0  0
   -3.8856   -8.2573    0.0000 C   0  0
    0.0000   -1.5000    0.0000 C   0  0
    2.7343   -2.9815    0.0000 O   0  0
  1  2  1  0
  2  3  2  0
  3  4  1  0
  4  5  1  0
  5  6  1  0
  5  7  2  0
  4  8  2  0
  8  9  1  0
  9 10  2  0
 10 11  1  0
 11 12  2  0
 12 13  1  0
 13 14  1  0
 14 15  1  0
 15 16  2  0
 15 17  1  0
 17 18  1  0
 18 19  1  0
 19 20  1  0
 20 21  1  0
 21 22  1  0
 22 23  1  0
 23 24  1  0
 24 25  2  0
 25 26  1  0
 26 27  2  0
 27 28  1  0
 28 29  2  0
 29 24  1  0
 23 30  1  0
 30 31  1  0
 31 20  1  0
 13 32  2  0
 32  9  1  0
  8 33  1  0
 33  2  1  0
M  END
> <Smiles>
Cc1cc(C(N)=O)c(-c2cccc(OC(=O)NCCN3CCN(c4ccccc4)CC3)c2)o1

> <ID>
CHEMBL4471658

> <standard_value>
23000

> <IC50_uM>
23

> <Activity>
No

> <pIC50>
4.638272164

> <BCI>
0

$$$$

  SciTegic03012415362D

 27 29  0  0  1  0            999 V2000
   10.3996   -1.4837    0.0000 C   0  0
    9.0990   -0.7364    0.0000 C   0  0
    7.8003   -1.4887    0.0000 C   0  0
    6.4990   -0.7409    0.0000 C   0  0
    5.2003   -1.4932    0.0000 C   0  0
    3.8990   -0.7455    0.0000 C   0  0
    2.6003   -1.4977    0.0000 O   0  0
    1.2990   -0.7500    0.0000 C   0  0  2  0  0  0
    1.2990    0.7500    0.0000 C   0  0
    0.0000    1.5000    0.0000 C   0  0
    0.0000    3.0000    0.0000 C   0  0
    1.2990    3.7500    0.0000 O   0  0
   -1.2991    3.7500    0.0000 C   0  0
   -2.5981    3.0000    0.0000 C   0  0
   -3.8971    3.7500    0.0000 O   0  0
   -2.5981    1.5000    0.0000 C   0  0
   -1.2990    0.7500    0.0000 C   0  0
   -1.2990   -0.7500    0.0000 O   0  0
    0.0000   -1.5000    0.0000 C   0  0  2  0  0  0
    0.0000   -3.0008    0.0000 C   0  0
    1.2979   -3.7529    0.0000 C   0  0
    1.2955   -5.2529    0.0000 C   0  0
   -0.0047   -6.0009    0.0000 C   0  0
   -0.0071   -7.5009    0.0000 O   0  0
   -1.3026   -5.2488    0.0000 C   0  0
   -2.6028   -5.9967    0.0000 O   0  0
   -1.3002   -3.7488    0.0000 C   0  0
  1  2  1  0
  2  3  1  0
  3  4  1  0
  4  5  1  0
  5  6  1  0
  6  7  1  0
  8  7  1  1
  8  9  1  0
  9 10  1  0
 10 11  2  0
 11 12  1  0
 11 13  1  0
 13 14  2  0
 14 15  1  0
 14 16  1  0
 16 17  2  0
 17 10  1  0
 17 18  1  0
 18 19  1  0
 19  8  1  0
 19 20  1  1
 20 21  2  0
 21 22  1  0
 22 23  2  0
 23 24  1  0
 23 25  1  0
 25 26  1  0
 25 27  2  0
 27 20  1  0
M  END
> <Smiles>
CCCCCCO[C@@H]1Cc2c(O)cc(O)cc2O[C@@H]1c1ccc(O)c(O)c1

> <ID>
CHEMBL183944

> <standard_value>
23400

> <IC50_uM>
23.4

> <Activity>
No

> <pIC50>
4.630784143

> <BCI>
0

$$$$

  SciTegic03012415362D

 34 36  0  0  1  0            999 V2000
   18.1995   -1.4701    0.0000 C   0  0
   16.8989   -0.7228    0.0000 C   0  0
   15.6002   -1.4751    0.0000 C   0  0
   14.2989   -0.7273    0.0000 C   0  0
   13.0002   -1.4796    0.0000 C   0  0
   11.6990   -0.7319    0.0000 C   0  0
   10.4003   -1.4841    0.0000 C   0  0
    9.0990   -0.7364    0.0000 C   0  0
    7.8003   -1.4887    0.0000 C   0  0
    6.4990   -0.7409    0.0000 C   0  0
    5.2003   -1.4932    0.0000 C   0  0
    3.8990   -0.7455    0.0000 C   0  0
    3.8964    0.7545    0.0000 O   0  0
    2.6003   -1.4977    0.0000 O   0  0
    1.2990   -0.7500    0.0000 C   0  0  2  0  0  0
    1.2990    0.7500    0.0000 C   0  0
    0.0000    1.5000    0.0000 C   0  0
    0.0000    3.0000    0.0000 C   0  0
    1.2990    3.7500    0.0000 O   0  0
   -1.2991    3.7500    0.0000 C   0  0
   -2.5981    3.0000    0.0000 C   0  0
   -3.8971    3.7500    0.0000 O   0  0
   -2.5981    1.5000    0.0000 C   0  0
   -1.2990    0.7500    0.0000 C   0  0
   -1.2990   -0.7500    0.0000 O   0  0
    0.0000   -1.5000    0.0000 C   0  0  2  0  0  0
    0.0000   -3.0008    0.0000 C   0  0
    1.2979   -3.7529    0.0000 C   0  0
    1.2955   -5.2529    0.0000 C   0  0
   -0.0047   -6.0009    0.0000 C   0  0
   -0.0071   -7.5009    0.0000 O   0  0
   -1.3026   -5.2488    0.0000 C   0  0
   -2.6028   -5.9967    0.0000 O   0  0
   -1.3002   -3.7488    0.0000 C   0  0
  1  2  1  0
  2  3  1  0
  3  4  1  0
  4  5  1  0
  5  6  1  0
  6  7  1  0
  7  8  1  0
  8  9  1  0
  9 10  1  0
 10 11  1  0
 11 12  1  0
 12 13  2  0
 12 14  1  0
 15 14  1  1
 15 16  1  0
 16 17  1  0
 17 18  2  0
 18 19  1  0
 18 20  1  0
 20 21  2  0
 21 22  1  0
 21 23  1  0
 23 24  2  0
 24 17  1  0
 24 25  1  0
 25 26  1  0
 26 15  1  0
 26 27  1  1
 27 28  2  0
 28 29  1  0
 29 30  2  0
 30 31  1  0
 30 32  1  0
 32 33  1  0
 32 34  2  0
 34 27  1  0
M  END
> <Smiles>
CCCCCCCCCCCC(=O)O[C@@H]1Cc2c(O)cc(O)cc2O[C@@H]1c1ccc(O)c(O)c1

> <ID>
CHEMBL184509

> <standard_value>
24300

> <IC50_uM>
24.3

> <Activity>
No

> <pIC50>
4.614393726

> <BCI>
0

$$$$

  SciTegic03012415362D

 30 33  0  0  1  0            999 V2000
    2.5981   -1.5000    0.0000 O   0  0
    1.2990   -0.7500    0.0000 C   0  0
    1.2990    0.7500    0.0000 C   0  0
    0.0000    1.5000    0.0000 C   0  0
    0.0000    3.0000    0.0000 O   0  0
   -1.2990    0.7500    0.0000 C   0  0
   -1.2990   -0.7500    0.0000 C   0  0
    0.0000   -1.5000    0.0000 C   0  0
   -2.5981   -1.5000    0.0000 O   0  0
   -3.8971   -0.7500    0.0000 C   0  0  2  0  0  0
   -5.1968   -1.5004    0.0000 C   0  0
   -6.4971   -0.7525    0.0000 C   0  0
   -7.7950   -1.5046    0.0000 C   0  0
   -7.7926   -3.0046    0.0000 C   0  0
   -9.0904   -3.7566    0.0000 O   0  0
   -6.4924   -3.7525    0.0000 C   0  0
   -6.4900   -5.2525    0.0000 O   0  0
   -5.1945   -3.0005    0.0000 C   0  0
   -3.8971    0.7500    0.0000 C   0  0  2  0  0  0
   -5.1984    1.4977    0.0000 O   0  0
   -6.4971    0.7455    0.0000 C   0  0
   -7.7984    1.4932    0.0000 C   0  0
   -9.0975    0.7432    0.0000 C   0  0
  -10.3965    1.4932    0.0000 C   0  0
  -11.6956    0.7431    0.0000 F   0  0
  -10.3966    2.9932    0.0000 C   0  0
   -9.0976    3.7432    0.0000 C   0  0
   -9.0976    5.2432    0.0000 F   0  0
   -7.7985    2.9932    0.0000 C   0  0
   -2.5981    1.5000    0.0000 C   0  0
  1  2  1  0
  2  3  2  0
  3  4  1  0
  4  5  1  0
  4  6  2  0
  6  7  1  0
  7  8  2  0
  8  2  1  0
  7  9  1  0
  9 10  1  0
 10 11  1  6
 11 12  2  0
 12 13  1  0
 13 14  2  0
 14 15  1  0
 14 16  1  0
 16 17  1  0
 16 18  2  0
 18 11  1  0
 10 19  1  0
 19 20  1  6
 20 21  1  0
 21 22  1  0
 22 23  2  0
 23 24  1  0
 24 25  1  0
 24 26  2  0
 26 27  1  0
 27 28  1  0
 27 29  2  0
 29 22  1  0
 19 30  1  0
 30  6  1  0
M  END
> <Smiles>
Oc1cc(O)c2c(c1)O[C@H](c1ccc(O)c(O)c1)[C@H](OCc1cc(F)cc(F)c1)C2

> <ID>
CHEMBL365877

> <standard_value>
25200

> <IC50_uM>
25.2

> <Activity>
No

> <pIC50>
4.598599459

> <BCI>
0

$$$$

  SciTegic03012415362D

 30 32  0  0  1  0            999 V2000
   12.9995   -1.4792    0.0000 C   0  0
   11.6990   -0.7319    0.0000 C   0  0
   10.4003   -1.4841    0.0000 C   0  0
    9.0990   -0.7364    0.0000 C   0  0
    7.8003   -1.4887    0.0000 C   0  0
    6.4990   -0.7409    0.0000 C   0  0
    5.2003   -1.4932    0.0000 C   0  0
    3.8990   -0.7455    0.0000 C   0  0
    3.8964    0.7545    0.0000 O   0  0
    2.6003   -1.4977    0.0000 O   0  0
    1.2990   -0.7500    0.0000 C   0  0  2  0  0  0
    1.2990    0.7500    0.0000 C   0  0
    0.0000    1.5000    0.0000 C   0  0
    0.0000    3.0000    0.0000 C   0  0
    1.2990    3.7500    0.0000 O   0  0
   -1.2991    3.7500    0.0000 C   0  0
   -2.5981    3.0000    0.0000 C   0  0
   -3.8971    3.7500    0.0000 O   0  0
   -2.5981    1.5000    0.0000 C   0  0
   -1.2990    0.7500    0.0000 C   0  0
   -1.2990   -0.7500    0.0000 O   0  0
    0.0000   -1.5000    0.0000 C   0  0  2  0  0  0
    0.0000   -3.0008    0.0000 C   0  0
    1.2979   -3.7529    0.0000 C   0  0
    1.2955   -5.2529    0.0000 C   0  0
   -0.0047   -6.0009    0.0000 C   0  0
   -0.0071   -7.5009    0.0000 O   0  0
   -1.3026   -5.2488    0.0000 C   0  0
   -2.6028   -5.9967    0.0000 O   0  0
   -1.3002   -3.7488    0.0000 C   0  0
  1  2  1  0
  2  3  1  0
  3  4  1  0
  4  5  1  0
  5  6  1  0
  6  7  1  0
  7  8  1  0
  8  9  2  0
  8 10  1  0
 11 10  1  1
 11 12  1  0
 12 13  1  0
 13 14  2  0
 14 15  1  0
 14 16  1  0
 16 17  2  0
 17 18  1  0
 17 19  1  0
 19 20  2  0
 20 13  1  0
 20 21  1  0
 21 22  1  0
 22 11  1  0
 22 23  1  1
 23 24  2  0
 24 25  1  0
 25 26  2  0
 26 27  1  0
 26 28  1  0
 28 29  1  0
 28 30  2  0
 30 23  1  0
M  END
> <Smiles>
CCCCCCCC(=O)O[C@@H]1Cc2c(O)cc(O)cc2O[C@@H]1c1ccc(O)c(O)c1

> <ID>
CHEMBL187962

> <standard_value>
29700

> <IC50_uM>
29.7

> <Activity>
No

> <pIC50>
4.527243551

> <BCI>
0

$$$$

  SciTegic03012415362D

 34 37  0  0  1  0            999 V2000
    9.0945    0.7599    0.0000 C   0  0
    9.0967   -0.7401    0.0000 O   0  0
    7.7985   -1.4932    0.0000 C   0  0
    6.4994   -0.7432    0.0000 C   0  0
    5.2003   -1.4932    0.0000 C   0  0
    3.8990   -0.7455    0.0000 C   0  0
    2.6003   -1.4977    0.0000 O   0  0
    1.2990   -0.7500    0.0000 C   0  0  2  0  0  0
    1.2990    0.7500    0.0000 C   0  0
    0.0000    1.5000    0.0000 C   0  0
    0.0000    3.0000    0.0000 C   0  0
    1.2990    3.7500    0.0000 O   0  0
   -1.2991    3.7500    0.0000 C   0  0
   -2.5981    3.0000    0.0000 C   0  0
   -3.8971    3.7500    0.0000 O   0  0
   -2.5981    1.5000    0.0000 C   0  0
   -1.2990    0.7500    0.0000 C   0  0
   -1.2990   -0.7500    0.0000 O   0  0
    0.0000   -1.5000    0.0000 C   0  0  2  0  0  0
    0.0000   -3.0008    0.0000 C   0  0
    1.2979   -3.7529    0.0000 C   0  0
    1.2955   -5.2529    0.0000 C   0  0
   -0.0047   -6.0009    0.0000 C   0  0
   -0.0071   -7.5009    0.0000 O   0  0
   -1.3026   -5.2488    0.0000 C   0  0
   -2.6028   -5.9967    0.0000 O   0  0
   -1.3002   -3.7488    0.0000 C   0  0
    5.2004   -2.9933    0.0000 C   0  0
    6.4995   -3.7432    0.0000 C   0  0
    6.4964   -5.2441    0.0000 O   0  0
    5.1964   -5.9923    0.0000 C   0  0
    7.7985   -2.9932    0.0000 C   0  0
    9.0998   -3.7409    0.0000 O   0  0
   10.3978   -2.9890    0.0000 C   0  0
  1  2  1  0
  2  3  1  0
  3  4  2  0
  4  5  1  0
  5  6  1  0
  6  7  1  0
  8  7  1  1
  8  9  1  0
  9 10  1  0
 10 11  2  0
 11 12  1  0
 11 13  1  0
 13 14  2  0
 14 15  1  0
 14 16  1  0
 16 17  2  0
 17 10  1  0
 17 18  1  0
 18 19  1  0
 19  8  1  0
 19 20  1  1
 20 21  2  0
 21 22  1  0
 22 23  2  0
 23 24  1  0
 23 25  1  0
 25 26  1  0
 25 27  2  0
 27 20  1  0
  5 28  2  0
 28 29  1  0
 29 30  1  0
 30 31  1  0
 29 32  2  0
 32  3  1  0
 32 33  1  0
 33 34  1  0
M  END
> <Smiles>
COc1cc(CO[C@@H]2Cc3c(O)cc(O)cc3O[C@@H]2c2ccc(O)c(O)c2)cc(OC)c1OC

> <ID>
CHEMBL188006

> <standard_value>
29800

> <IC50_uM>
29.8

> <Activity>
No

> <pIC50>
4.525783736

> <BCI>
0

$$$$

  SciTegic03012415362D

 36 38  0  0  1  0            999 V2000
   20.7995   -1.4656    0.0000 C   0  0
   19.4989   -0.7183    0.0000 C   0  0
   18.2002   -1.4705    0.0000 C   0  0
   16.8989   -0.7228    0.0000 C   0  0
   15.6002   -1.4751    0.0000 C   0  0
   14.2989   -0.7273    0.0000 C   0  0
   13.0002   -1.4796    0.0000 C   0  0
   11.6990   -0.7319    0.0000 C   0  0
   10.4003   -1.4841    0.0000 C   0  0
    9.0990   -0.7364    0.0000 C   0  0
    7.8003   -1.4887    0.0000 C   0  0
    6.4990   -0.7409    0.0000 C   0  0
    5.2003   -1.4932    0.0000 C   0  0
    3.8990   -0.7455    0.0000 C   0  0
    3.8964    0.7545    0.0000 O   0  0
    2.6003   -1.4977    0.0000 O   0  0
    1.2990   -0.7500    0.0000 C   0  0  2  0  0  0
    1.2990    0.7500    0.0000 C   0  0
    0.0000    1.5000    0.0000 C   0  0
    0.0000    3.0000    0.0000 C   0  0
    1.2990    3.7500    0.0000 O   0  0
   -1.2991    3.7500    0.0000 C   0  0
   -2.5981    3.0000    0.0000 C   0  0
   -3.8971    3.7500    0.0000 O   0  0
   -2.5981    1.5000    0.0000 C   0  0
   -1.2990    0.7500    0.0000 C   0  0
   -1.2990   -0.7500    0.0000 O   0  0
    0.0000   -1.5000    0.0000 C   0  0  2  0  0  0
    0.0000   -3.0008    0.0000 C   0  0
    1.2979   -3.7529    0.0000 C   0  0
    1.2955   -5.2529    0.0000 C   0  0
   -0.0047   -6.0009    0.0000 C   0  0
   -0.0071   -7.5009    0.0000 O   0  0
   -1.3026   -5.2488    0.0000 C   0  0
   -2.6028   -5.9967    0.0000 O   0  0
   -1.3002   -3.7488    0.0000 C   0  0
  1  2  1  0
  2  3  1  0
  3  4  1  0
  4  5  1  0
  5  6  1  0
  6  7  1  0
  7  8  1  0
  8  9  1  0
  9 10  1  0
 10 11  1  0
 11 12  1  0
 12 13  1  0
 13 14  1  0
 14 15  2  0
 14 16  1  0
 17 16  1  1
 17 18  1  0
 18 19  1  0
 19 20  2  0
 20 21  1  0
 20 22  1  0
 22 23  2  0
 23 24  1  0
 23 25  1  0
 25 26  2  0
 26 19  1  0
 26 27  1  0
 27 28  1  0
 28 17  1  0
 28 29  1  1
 29 30  2  0
 30 31  1  0
 31 32  2  0
 32 33  1  0
 32 34  1  0
 34 35  1  0
 34 36  2  0
 36 29  1  0
M  END
> <Smiles>
CCCCCCCCCCCCCC(=O)O[C@@H]1Cc2c(O)cc(O)cc2O[C@@H]1c1ccc(O)c(O)c1

> <ID>
CHEMBL186031

> <standard_value>
36700

> <IC50_uM>
36.7

> <Activity>
No

> <pIC50>
4.435333936

> <BCI>
0

$$$$

  SciTegic03012415362D

 38 40  0  0  1  0            999 V2000
   23.3994   -1.4611    0.0000 C   0  0
   22.0989   -0.7138    0.0000 C   0  0
   20.8002   -1.4660    0.0000 C   0  0
   19.4989   -0.7183    0.0000 C   0  0
   18.2002   -1.4705    0.0000 C   0  0
   16.8989   -0.7228    0.0000 C   0  0
   15.6002   -1.4751    0.0000 C   0  0
   14.2989   -0.7273    0.0000 C   0  0
   13.0002   -1.4796    0.0000 C   0  0
   11.6990   -0.7319    0.0000 C   0  0
   10.4003   -1.4841    0.0000 C   0  0
    9.0990   -0.7364    0.0000 C   0  0
    7.8003   -1.4887    0.0000 C   0  0
    6.4990   -0.7409    0.0000 C   0  0
    5.2003   -1.4932    0.0000 C   0  0
    3.8990   -0.7455    0.0000 C   0  0
    3.8964    0.7545    0.0000 O   0  0
    2.6003   -1.4977    0.0000 O   0  0
    1.2990   -0.7500    0.0000 C   0  0  2  0  0  0
    1.2990    0.7500    0.0000 C   0  0
    0.0000    1.5000    0.0000 C   0  0
    0.0000    3.0000    0.0000 C   0  0
    1.2990    3.7500    0.0000 O   0  0
   -1.2991    3.7500    0.0000 C   0  0
   -2.5981    3.0000    0.0000 C   0  0
   -3.8971    3.7500    0.0000 O   0  0
   -2.5981    1.5000    0.0000 C   0  0
   -1.2990    0.7500    0.0000 C   0  0
   -1.2990   -0.7500    0.0000 O   0  0
    0.0000   -1.5000    0.0000 C   0  0  2  0  0  0
    0.0000   -3.0008    0.0000 C   0  0
    1.2979   -3.7529    0.0000 C   0  0
    1.2955   -5.2529    0.0000 C   0  0
   -0.0047   -6.0009    0.0000 C   0  0
   -0.0071   -7.5009    0.0000 O   0  0
   -1.3026   -5.2488    0.0000 C   0  0
   -2.6028   -5.9967    0.0000 O   0  0
   -1.3002   -3.7488    0.0000 C   0  0
  1  2  1  0
  2  3  1  0
  3  4  1  0
  4  5  1  0
  5  6  1  0
  6  7  1  0
  7  8  1  0
  8  9  1  0
  9 10  1  0
 10 11  1  0
 11 12  1  0
 12 13  1  0
 13 14  1  0
 14 15  1  0
 15 16  1  0
 16 17  2  0
 16 18  1  0
 19 18  1  1
 19 20  1  0
 20 21  1  0
 21 22  2  0
 22 23  1  0
 22 24  1  0
 24 25  2  0
 25 26  1  0
 25 27  1  0
 27 28  2  0
 28 21  1  0
 28 29  1  0
 29 30  1  0
 30 19  1  0
 30 31  1  1
 31 32  2  0
 32 33  1  0
 33 34  2  0
 34 35  1  0
 34 36  1  0
 36 37  1  0
 36 38  2  0
 38 31  1  0
M  END
> <Smiles>
CCCCCCCCCCCCCCCC(=O)O[C@@H]1Cc2c(O)cc(O)cc2O[C@@H]1c1ccc(O)c(O)c1

> <ID>
CHEMBL365478

> <standard_value>
42900

> <IC50_uM>
42.9

> <Activity>
No

> <pIC50>
4.367542708

> <BCI>
0

$$$$

  SciTegic03012415362D

 31 31  0  0  1  0            999 V2000
   12.9995   -1.4792    0.0000 C   0  0
   11.6990   -0.7319    0.0000 C   0  0
   10.4003   -1.4841    0.0000 C   0  0
    9.0990   -0.7364    0.0000 C   0  0
    7.8003   -1.4887    0.0000 C   0  0
    6.4990   -0.7409    0.0000 C   0  0
    5.2003   -1.4932    0.0000 C   0  0
    3.8990   -0.7455    0.0000 C   0  0
    2.6003   -1.4977    0.0000 O   0  0
    1.2990   -0.7500    0.0000 C   0  0  1  0  0  0
    1.2990    0.7500    0.0000 O   0  0
    0.0000    1.5000    0.0000 C   0  0  1  0  0  0
    0.0031    3.0008    0.0000 C   0  0
    1.3039    3.7494    0.0000 O   0  0
    1.3070    5.2502    0.0000 C   0  0
    2.6078    5.9988    0.0000 C   0  0
    2.6109    7.4996    0.0000 C   0  0
    3.9110    8.2478    0.0000 O   0  0
    3.9062    5.2462    0.0000 C   0  0
    3.9045    3.7462    0.0000 O   0  0
    1.2856    6.7685    0.0000 C   0  0
    1.2901    8.2685    0.0000 O   0  0
   -1.2990    0.7500    0.0000 C   0  0  1  0  0  0
   -2.5981    1.5000    0.0000 O   0  0
   -1.2990   -0.7500    0.0000 C   0  0  2  0  0  0
   -2.5981   -1.5000    0.0000 O   0  0
    0.0000   -1.5000    0.0000 C   0  0  2  0  0  0
   -0.0031   -3.0008    0.0000 N   0  0
   -1.3039   -3.7494    0.0000 C   0  0
   -2.6016   -2.9971    0.0000 C   0  0
   -1.3070   -5.2494    0.0000 O   0  0
  1  2  1  0
  2  3  1  0
  3  4  1  0
  4  5  1  0
  5  6  1  0
  6  7  1  0
  7  8  1  0
  8  9  1  0
 10  9  1  6
 10 11  1  0
 11 12  1  0
 12 13  1  6
 13 14  1  0
 14 15  1  0
 15 16  1  0
 16 17  1  0
 17 18  1  0
 16 19  1  0
 19 20  1  0
 16 21  1  0
 21 22  1  0
 12 23  1  0
 23 24  1  6
 23 25  1  0
 25 26  1  1
 25 27  1  0
 27 10  1  0
 27 28  1  1
 28 29  1  0
 29 30  1  0
 29 31  2  0
M  END
> <Smiles>
CCCCCCCCO[C@H]1O[C@@H](COCC(CO)(CO)CO)[C@@H](O)[C@H](O)[C@@H]1NC(C)=O

> <ID>
CHEMBL3037893

> <standard_value>
43000

> <IC50_uM>
43

> <Activity>
No

> <pIC50>
4.366531544

> <BCI>
0

$$$$

  SciTegic03012415362D

 30 32  0  0  0  0            999 V2000
    6.2966   -4.8284    0.0000 N   0  0
    4.8054   -4.6666    0.0000 C   0  0
    3.9200   -5.8774    0.0000 O   0  0
    4.2010   -3.2956    0.0000 C   0  0
    4.9531   -1.9978    0.0000 C   0  0
    3.9511   -0.8815    0.0000 C   0  0
    2.5987   -1.5004    0.0000 N   0  0
    1.2990   -0.7500    0.0000 C   0  0
    1.2990    0.7500    0.0000 C   0  0
    0.0000    1.5000    0.0000 C   0  0
   -1.2990    0.7500    0.0000 C   0  0
   -1.2990   -0.7500    0.0000 C   0  0
   -2.5972   -1.5031    0.0000 O   0  0
   -2.5951   -3.0039    0.0000 C   0  0
   -1.2948   -3.7517    0.0000 O   0  0
   -3.8933   -3.7570    0.0000 N   0  0
   -3.8912   -5.2578    0.0000 C   0  0
   -5.1894   -6.0109    0.0000 C   0  0
   -5.1872   -7.5117    0.0000 C   0  0
   -6.4854   -8.2648    0.0000 C   0  0
   -6.4833   -9.7657    0.0000 C   0  0
   -7.7815  -10.5188    0.0000 C   0  0
   -7.7793  -12.0196    0.0000 C   0  0
   -9.0758  -12.7742    0.0000 C   0  0
   -9.0706  -14.2742    0.0000 C   0  0
   -7.7689  -15.0197    0.0000 C   0  0
   -6.4725  -14.2652    0.0000 C   0  0
   -6.4777  -12.7652    0.0000 C   0  0
    0.0000   -1.5000    0.0000 C   0  0
    2.7343   -2.9815    0.0000 C   0  0
  1  2  1  0
  2  3  2  0
  2  4  1  0
  4  5  1  0
  5  6  2  0
  6  7  1  0
  7  8  1  0
  8  9  2  0
  9 10  1  0
 10 11  2  0
 11 12  1  0
 12 13  1  0
 13 14  1  0
 14 15  2  0
 14 16  1  0
 16 17  1  0
 17 18  1  0
 18 19  1  0
 19 20  1  0
 20 21  1  0
 21 22  1  0
 22 23  1  0
 23 24  2  0
 24 25  1  0
 25 26  2  0
 26 27  1  0
 27 28  2  0
 28 23  1  0
 12 29  2  0
 29  8  1  0
  7 30  1  0
 30  4  2  0
M  END
> <Smiles>
NC(=O)c1ccn(-c2cccc(OC(=O)NCCCCCCc3ccccc3)c2)c1

> <ID>
CHEMBL2165084

> <standard_value>
50000

> <IC50_uM>
50

> <Activity>
No

> <pIC50>
4.301029996

> <BCI>
0

$$$$

  SciTegic03012415362D

 34 37  0  0  1  0            999 V2000
    3.8964    0.7545    0.0000 O   0  0
    3.8990   -0.7455    0.0000 C   0  0
    2.6003   -1.4977    0.0000 O   0  0
    1.2990   -0.7500    0.0000 C   0  0  2  0  0  0
    1.2990    0.7500    0.0000 C   0  0
    0.0000    1.5000    0.0000 C   0  0
    0.0000    3.0000    0.0000 C   0  0
    1.2990    3.7500    0.0000 O   0  0
   -1.2991    3.7500    0.0000 C   0  0
   -2.5981    3.0000    0.0000 C   0  0
   -3.8971    3.7500    0.0000 O   0  0
   -2.5981    1.5000    0.0000 C   0  0
   -1.2990    0.7500    0.0000 C   0  0
   -1.2990   -0.7500    0.0000 O   0  0
    0.0000   -1.5000    0.0000 C   0  0  2  0  0  0
    0.0000   -3.0008    0.0000 C   0  0
    1.2979   -3.7529    0.0000 C   0  0
    1.2955   -5.2529    0.0000 C   0  0
   -0.0047   -6.0009    0.0000 C   0  0
   -0.0071   -7.5009    0.0000 O   0  0
   -1.3026   -5.2488    0.0000 C   0  0
   -2.6028   -5.9967    0.0000 O   0  0
   -1.3002   -3.7488    0.0000 C   0  0
    5.2003   -1.4932    0.0000 C   0  0
    6.4994   -0.7432    0.0000 C   0  0
    7.7985   -1.4932    0.0000 C   0  0
    7.7985   -2.9932    0.0000 C   0  0
    9.0967   -3.7463    0.0000 O   0  0
    9.0946   -5.2471    0.0000 C   0  0
   10.3921   -5.9997    0.0000 F   0  0
    7.7943   -5.9949    0.0000 F   0  0
    9.0918   -6.7471    0.0000 F   0  0
    6.4995   -3.7432    0.0000 C   0  0
    5.2004   -2.9933    0.0000 C   0  0
  1  2  2  0
  2  3  1  0
  4  3  1  1
  4  5  1  0
  5  6  1  0
  6  7  2  0
  7  8  1  0
  7  9  1  0
  9 10  2  0
 10 11  1  0
 10 12  1  0
 12 13  2  0
 13  6  1  0
 13 14  1  0
 14 15  1  0
 15  4  1  0
 15 16  1  1
 16 17  2  0
 17 18  1  0
 18 19  2  0
 19 20  1  0
 19 21  1  0
 21 22  1  0
 21 23  2  0
 23 16  1  0
  2 24  1  0
 24 25  2  0
 25 26  1  0
 26 27  2  0
 27 28  1  0
 28 29  1  0
 29 30  1  0
 29 31  1  0
 29 32  1  0
 27 33  1  0
 33 34  2  0
 34 24  1  0
M  END
> <Smiles>
O=C(O[C@@H]1Cc2c(O)cc(O)cc2O[C@@H]1c1ccc(O)c(O)c1)c1ccc(OC(F)(F)F)cc1

> <ID>
CHEMBL186867

> <standard_value>
50300

> <IC50_uM>
50.3

> <Activity>
No

> <pIC50>
4.298432015

> <BCI>
0

$$$$

  SciTegic03012415362D

 35 38  0  0  1  0            999 V2000
    9.0945    0.7599    0.0000 C   0  0
    9.0967   -0.7401    0.0000 O   0  0
    7.7985   -1.4932    0.0000 C   0  0
    6.4994   -0.7432    0.0000 C   0  0
    5.2003   -1.4932    0.0000 C   0  0
    3.8990   -0.7455    0.0000 C   0  0
    3.8964    0.7545    0.0000 O   0  0
    2.6003   -1.4977    0.0000 O   0  0
    1.2990   -0.7500    0.0000 C   0  0  2  0  0  0
    1.2990    0.7500    0.0000 C   0  0
    0.0000    1.5000    0.0000 C   0  0
    0.0000    3.0000    0.0000 C   0  0
    1.2990    3.7500    0.0000 O   0  0
   -1.2991    3.7500    0.0000 C   0  0
   -2.5981    3.0000    0.0000 C   0  0
   -3.8971    3.7500    0.0000 O   0  0
   -2.5981    1.5000    0.0000 C   0  0
   -1.2990    0.7500    0.0000 C   0  0
   -1.2990   -0.7500    0.0000 O   0  0
    0.0000   -1.5000    0.0000 C   0  0  2  0  0  0
    0.0000   -3.0008    0.0000 C   0  0
    1.2979   -3.7529    0.0000 C   0  0
    1.2955   -5.2529    0.0000 C   0  0
   -0.0047   -6.0009    0.0000 C   0  0
   -0.0071   -7.5009    0.0000 O   0  0
   -1.3026   -5.2488    0.0000 C   0  0
   -2.6028   -5.9967    0.0000 O   0  0
   -1.3002   -3.7488    0.0000 C   0  0
    5.2004   -2.9933    0.0000 C   0  0
    6.4995   -3.7432    0.0000 C   0  0
    6.4964   -5.2441    0.0000 O   0  0
    5.1964   -5.9923    0.0000 C   0  0
    7.7985   -2.9932    0.0000 C   0  0
    9.0998   -3.7409    0.0000 O   0  0
   10.3978   -2.9890    0.0000 C   0  0
  1  2  1  0
  2  3  1  0
  3  4  2  0
  4  5  1  0
  5  6  1  0
  6  7  2  0
  6  8  1  0
  9  8  1  1
  9 10  1  0
 10 11  1  0
 11 12  2  0
 12 13  1  0
 12 14  1  0
 14 15  2  0
 15 16  1  0
 15 17  1  0
 17 18  2  0
 18 11  1  0
 18 19  1  0
 19 20  1  0
 20  9  1  0
 20 21  1  1
 21 22  2  0
 22 23  1  0
 23 24  2  0
 24 25  1  0
 24 26  1  0
 26 27  1  0
 26 28  2  0
 28 21  1  0
  5 29  2  0
 29 30  1  0
 30 31  1  0
 31 32  1  0
 30 33  2  0
 33  3  1  0
 33 34  1  0
 34 35  1  0
M  END
> <Smiles>
COc1cc(C(=O)O[C@@H]2Cc3c(O)cc(O)cc3O[C@@H]2c2ccc(O)c(O)c2)cc(OC)c1OC

> <ID>
CHEMBL185319

> <standard_value>
57200

> <IC50_uM>
57.2

> <Activity>
No

> <pIC50>
4.242603971

> <BCI>
0

$$$$

  SciTegic03012415362D

 32 35  0  0  1  0            999 V2000
    3.8964    0.7545    0.0000 O   0  0
    3.8990   -0.7455    0.0000 C   0  0
    2.6003   -1.4977    0.0000 O   0  0
    1.2990   -0.7500    0.0000 C   0  0  2  0  0  0
    1.2990    0.7500    0.0000 C   0  0
    0.0000    1.5000    0.0000 C   0  0
    0.0000    3.0000    0.0000 C   0  0
    1.2990    3.7500    0.0000 O   0  0
   -1.2991    3.7500    0.0000 C   0  0
   -2.5981    3.0000    0.0000 C   0  0
   -3.8971    3.7500    0.0000 O   0  0
   -2.5981    1.5000    0.0000 C   0  0
   -1.2990    0.7500    0.0000 C   0  0
   -1.2990   -0.7500    0.0000 O   0  0
    0.0000   -1.5000    0.0000 C   0  0  2  0  0  0
    0.0000   -3.0008    0.0000 C   0  0
    1.2979   -3.7529    0.0000 C   0  0
    1.2955   -5.2529    0.0000 C   0  0
   -0.0047   -6.0009    0.0000 C   0  0
   -0.0071   -7.5009    0.0000 O   0  0
   -1.3026   -5.2488    0.0000 C   0  0
   -2.6028   -5.9967    0.0000 O   0  0
   -1.3002   -3.7488    0.0000 C   0  0
    5.2003   -1.4932    0.0000 C   0  0
    6.4994   -0.7432    0.0000 C   0  0
    7.7985   -1.4932    0.0000 C   0  0
    9.0975   -0.7432    0.0000 F   0  0
    7.7985   -2.9932    0.0000 C   0  0
    9.0976   -3.7432    0.0000 F   0  0
    6.4995   -3.7432    0.0000 C   0  0
    6.4995   -5.2432    0.0000 F   0  0
    5.2004   -2.9933    0.0000 C   0  0
  1  2  2  0
  2  3  1  0
  4  3  1  1
  4  5  1  0
  5  6  1  0
  6  7  2  0
  7  8  1  0
  7  9  1  0
  9 10  2  0
 10 11  1  0
 10 12  1  0
 12 13  2  0
 13  6  1  0
 13 14  1  0
 14 15  1  0
 15  4  1  0
 15 16  1  1
 16 17  2  0
 17 18  1  0
 18 19  2  0
 19 20  1  0
 19 21  1  0
 21 22  1  0
 21 23  2  0
 23 16  1  0
  2 24  1  0
 24 25  2  0
 25 26  1  0
 26 27  1  0
 26 28  2  0
 28 29  1  0
 28 30  1  0
 30 31  1  0
 30 32  2  0
 32 24  1  0
M  END
> <Smiles>
O=C(O[C@@H]1Cc2c(O)cc(O)cc2O[C@@H]1c1ccc(O)c(O)c1)c1cc(F)c(F)c(F)c1

> <ID>
CHEMBL184697

> <standard_value>
59200

> <IC50_uM>
59.2

> <Activity>
No

> <pIC50>
4.227678293

> <BCI>
0

$$$$

  SciTegic03012415362D

 28 30  0  0  1  0            999 V2000
   10.3996   -1.4837    0.0000 C   0  0
    9.0990   -0.7364    0.0000 C   0  0
    7.8003   -1.4887    0.0000 C   0  0
    6.4990   -0.7409    0.0000 C   0  0
    5.2003   -1.4932    0.0000 C   0  0
    3.8990   -0.7455    0.0000 C   0  0
    3.8964    0.7545    0.0000 O   0  0
    2.6003   -1.4977    0.0000 O   0  0
    1.2990   -0.7500    0.0000 C   0  0  2  0  0  0
    1.2990    0.7500    0.0000 C   0  0
    0.0000    1.5000    0.0000 C   0  0
    0.0000    3.0000    0.0000 C   0  0
    1.2990    3.7500    0.0000 O   0  0
   -1.2991    3.7500    0.0000 C   0  0
   -2.5981    3.0000    0.0000 C   0  0
   -3.8971    3.7500    0.0000 O   0  0
   -2.5981    1.5000    0.0000 C   0  0
   -1.2990    0.7500    0.0000 C   0  0
   -1.2990   -0.7500    0.0000 O   0  0
    0.0000   -1.5000    0.0000 C   0  0  2  0  0  0
    0.0000   -3.0008    0.0000 C   0  0
    1.2979   -3.7529    0.0000 C   0  0
    1.2955   -5.2529    0.0000 C   0  0
   -0.0047   -6.0009    0.0000 C   0  0
   -0.0071   -7.5009    0.0000 O   0  0
   -1.3026   -5.2488    0.0000 C   0  0
   -2.6028   -5.9967    0.0000 O   0  0
   -1.3002   -3.7488    0.0000 C   0  0
  1  2  1  0
  2  3  1  0
  3  4  1  0
  4  5  1  0
  5  6  1  0
  6  7  2  0
  6  8  1  0
  9  8  1  1
  9 10  1  0
 10 11  1  0
 11 12  2  0
 12 13  1  0
 12 14  1  0
 14 15  2  0
 15 16  1  0
 15 17  1  0
 17 18  2  0
 18 11  1  0
 18 19  1  0
 19 20  1  0
 20  9  1  0
 20 21  1  1
 21 22  2  0
 22 23  1  0
 23 24  2  0
 24 25  1  0
 24 26  1  0
 26 27  1  0
 26 28  2  0
 28 21  1  0
M  END
> <Smiles>
CCCCCC(=O)O[C@@H]1Cc2c(O)cc(O)cc2O[C@@H]1c1ccc(O)c(O)c1

> <ID>
CHEMBL184211

> <standard_value>
71200

> <IC50_uM>
71.2

> <Activity>
No

> <pIC50>
4.147520006

> <BCI>
0

$$$$

  SciTegic03012415362D

 25 27  0  0  1  0            999 V2000
    7.7996   -1.4883    0.0000 C   0  0
    6.4990   -0.7409    0.0000 C   0  0
    5.2003   -1.4932    0.0000 C   0  0
    3.8990   -0.7455    0.0000 C   0  0
    2.6003   -1.4977    0.0000 O   0  0
    1.2990   -0.7500    0.0000 C   0  0  2  0  0  0
    1.2990    0.7500    0.0000 C   0  0
    0.0000    1.5000    0.0000 C   0  0
    0.0000    3.0000    0.0000 C   0  0
    1.2990    3.7500    0.0000 O   0  0
   -1.2991    3.7500    0.0000 C   0  0
   -2.5981    3.0000    0.0000 C   0  0
   -3.8971    3.7500    0.0000 O   0  0
   -2.5981    1.5000    0.0000 C   0  0
   -1.2990    0.7500    0.0000 C   0  0
   -1.2990   -0.7500    0.0000 O   0  0
    0.0000   -1.5000    0.0000 C   0  0  2  0  0  0
    0.0000   -3.0008    0.0000 C   0  0
    1.2979   -3.7529    0.0000 C   0  0
    1.2955   -5.2529    0.0000 C   0  0
   -0.0047   -6.0009    0.0000 C   0  0
   -0.0071   -7.5009    0.0000 O   0  0
   -1.3026   -5.2488    0.0000 C   0  0
   -2.6028   -5.9967    0.0000 O   0  0
   -1.3002   -3.7488    0.0000 C   0  0
  1  2  1  0
  2  3  1  0
  3  4  1  0
  4  5  1  0
  6  5  1  1
  6  7  1  0
  7  8  1  0
  8  9  2  0
  9 10  1  0
  9 11  1  0
 11 12  2  0
 12 13  1  0
 12 14  1  0
 14 15  2  0
 15  8  1  0
 15 16  1  0
 16 17  1  0
 17  6  1  0
 17 18  1  1
 18 19  2  0
 19 20  1  0
 20 21  2  0
 21 22  1  0
 21 23  1  0
 23 24  1  0
 23 25  2  0
 25 18  1  0
M  END
> <Smiles>
CCCCO[C@@H]1Cc2c(O)cc(O)cc2O[C@@H]1c1ccc(O)c(O)c1

> <ID>
CHEMBL182932

> <standard_value>
77200

> <IC50_uM>
77.2

> <Activity>
No

> <pIC50>
4.1123827

> <BCI>
0

$$$$

  SciTegic03012415362D

 10 11  0  0  1  0            999 V2000
    0.7472   -1.3256    0.0000 C   0  0
   -0.5600   -0.5900    0.0000 C   0  0
   -0.5600    0.7500    0.0000 C   0  0
   -1.7700    1.3700    0.0000 C   0  0
   -2.9000    0.6800    0.0000 C   0  0  2  0  0  0
   -3.7700   -1.2700    0.0000 C   0  0
   -1.6800   -1.2700    0.0000 C   0  0  1  0  0  0
   -2.9200   -0.5900    0.0000 C   0  0
   -4.2046    0.1844    0.0000 C   0  0
   -2.8825   -2.0895    0.0000 C   0  0
  1  2  1  0
  2  3  2  0
  3  4  1  0
  5  4  1  1
  5  6  1  0
  7  6  1  1
  7  2  1  0
  7  8  1  0
  8  5  1  0
  8  9  1  0
  8 10  1  0
M  END
> <Smiles>
CC1=CC[C@@H]2C[C@H]1C2(C)C

> <ID>
CHEMBL1236329

> <standard_value>
80000

> <IC50_uM>
80

> <Activity>
No

> <pIC50>
4.096910013

> <BCI>
0

$$$$

  SciTegic03012415362D

 33 36  0  0  1  0            999 V2000
   -3.1674   -4.8684    0.0000 C   0  0
   -2.7074   -6.2961    0.0000 O   0  0
   -1.2403   -6.6126    0.0000 C   0  0  1  0  0  0
   -0.7784   -8.0406    0.0000 C   0  0
   -1.7834   -9.1552    0.0000 C   0  0
   -1.3217  -10.5824    0.0000 C   0  0
   -3.2503   -8.8419    0.0000 C   0  0
   -0.2353   -5.4980    0.0000 C   0  0
   -0.6972   -4.0700    0.0000 C   0  0  2  0  0  0
   -2.1641   -3.7567    0.0000 C   0  0
    0.3061   -2.9572    0.0000 C   0  0  2  0  0  0
    1.7979   -3.1140    0.0000 C   0  0
    2.4080   -1.7436    0.0000 C   0  0
    1.2990   -0.7500    0.0000 C   0  0  2  0  0  0
    2.6686   -0.1382    0.0000 C   0  0
    1.2990    0.7500    0.0000 C   0  0
    2.5981    1.5000    0.0000 C   0  0
    2.5981    3.0000    0.0000 C   0  0
    1.2990    3.7500    0.0000 C   0  0  3  0  0  0
    1.2990    5.2500    0.0000 C   0  0
    2.5800    4.4696    0.0000 C   0  0
    1.2638    6.7496    0.0000 C   0  0
    0.0000    6.0000    0.0000 C   0  0
   -0.0001    7.5000    0.0000 O   0  0
   -1.2991    5.2500    0.0000 C   0  0
   -1.2991    3.7500    0.0000 C   0  0
    0.0000    3.0000    0.0000 C   0  0  1  0  0  0
   -1.2991    2.2500    0.0000 C   0  0
    0.0000    1.5000    0.0000 C   0  0  1  0  0  0
   -1.2990    0.7500    0.0000 C   0  0
   -1.2990   -0.7500    0.0000 C   0  0
    0.0000   -1.5000    0.0000 C   0  0  1  0  0  0
   -1.2146   -2.3802    0.0000 C   0  0
  1  2  1  0
  3  2  1  6
  3  4  1  0
  4  5  2  0
  5  6  1  0
  5  7  1  0
  3  8  1  0
  8  9  1  0
  9 10  1  6
  9 11  1  0
 11 12  1  1
 12 13  1  0
 13 14  1  0
 14 15  1  6
 14 16  1  0
 16 17  2  0
 17 18  1  0
 19 18  1  4
 19 20  1  0
 20 21  1  0
 20 22  1  0
 20 23  1  0
 23 24  2  0
 23 25  1  0
 25 26  1  0
 26 27  1  0
 27 19  1  0
 27 28  1  6
 27 29  1  0
 29 16  1  0
 29 30  1  6
 30 31  1  0
 31 32  1  0
 32 11  1  0
 32 14  1  0
 32 33  1  1
M  END
> <Smiles>
CO[C@@H](C=C(C)C)C[C@H](C)[C@@H]1CC[C@]2(C)C3=CCC4C(C)(C)C(=O)CC[C@]4(C)[C@H]3CC[C@@]12C

> <ID>
CHEMBL1668100

> <standard_value>
20490

> <IC50_uM>
20.49

> <Activity>
No

> <pIC50>
4.688458042

> <BCI>
0

$$$$

  SciTegic03012415362D

 26 28  0  0  1  0            999 V2000
    2.6018   -5.9994    0.0000 C   0  0
    3.9008   -5.2492    0.0000 O   0  0
    3.9014   -3.7484    0.0000 C   0  0
    2.6012   -3.0004    0.0000 C   0  0
    2.5987   -1.5004    0.0000 C   0  0
    1.2990   -0.7500    0.0000 C   0  0  2  0  0  0
    1.2990    0.7500    0.0000 C   0  0
    2.5981    1.5000    0.0000 C   0  0
    2.5981    3.0000    0.0000 C   0  0
    3.8971    3.7500    0.0000 O   0  0
    1.2990    3.7500    0.0000 C   0  0
    1.2959    5.2508    0.0000 O   0  0
   -0.0042    5.9990    0.0000 C   0  0
    0.0000    3.0000    0.0000 C   0  0
    0.0000    1.5000    0.0000 C   0  0
   -1.2990    0.7500    0.0000 C   0  0
   -1.2990   -0.7500    0.0000 C   0  0  2  0  0  0
   -2.6003   -1.4978    0.0000 C   0  0
   -3.8983   -0.7459    0.0000 O   0  0
    0.0000   -1.5000    0.0000 C   0  0  1  0  0  0
   -0.0031   -3.0008    0.0000 C   0  0
   -1.3032   -3.7490    0.0000 O   0  0
    3.8967   -0.7484    0.0000 C   0  0
    5.1969   -1.4963    0.0000 C   0  0
    5.1993   -2.9963    0.0000 C   0  0
    6.4995   -3.7442    0.0000 O   0  0
  1  2  1  0
  2  3  1  0
  3  4  2  0
  4  5  1  0
  6  5  1  1
  6  7  1  0
  7  8  2  0
  8  9  1  0
  9 10  1  0
  9 11  2  0
 11 12  1  0
 12 13  1  0
 11 14  1  0
 14 15  2  0
 15  7  1  0
 15 16  1  0
 16 17  1  0
 17 18  1  1
 18 19  1  0
 17 20  1  0
 20  6  1  0
 20 21  1  6
 21 22  1  0
  5 23  2  0
 23 24  1  0
 24 25  2  0
 25  3  1  0
 25 26  1  0
M  END
> <Smiles>
COc1cc([C@@H]2c3cc(O)c(OC)cc3C[C@H](CO)[C@H]2CO)ccc1O

> <ID>
CHEMBL1760593

> <standard_value>
22810

> <IC50_uM>
22.81

> <Activity>
No

> <pIC50>
4.641874715

> <BCI>
0

$$$$

  SciTegic03012415362D

 26 28  0  0  1  0            999 V2000
    3.8983   -0.7459    0.0000 C   0  0
    2.6003   -1.4977    0.0000 O   0  0
    1.2990   -0.7500    0.0000 C   0  0
    1.2990    0.7500    0.0000 C   0  0
    0.0000    1.5000    0.0000 C   0  0
   -0.0031    3.0008    0.0000 C   0  0
   -1.3039    3.7494    0.0000 C   0  0  1  0  0  0
   -2.6532    3.1236    0.0000 C   0  0
   -3.6607    4.2349    0.0000 O   0  0
   -2.9153    5.5365    0.0000 C   0  0
   -3.5301    6.9047    0.0000 O   0  0
   -1.4470    5.2297    0.0000 C   0  0  2  0  0  0
   -0.3315    6.2299    0.0000 C   0  0
   -0.6394    7.6988    0.0000 C   0  0
    0.4760    8.7017    0.0000 C   0  0
    0.1652   10.1692    0.0000 C   0  0
   -1.2611   10.6337    0.0000 C   0  0
   -1.5719   12.1012    0.0000 O   0  0
   -2.3765    9.6309    0.0000 C   0  0
   -3.8045   10.0927    0.0000 O   0  0
   -4.9185    9.0883    0.0000 C   0  0
   -2.0657    8.1634    0.0000 C   0  0
   -1.2990    0.7500    0.0000 C   0  0
   -1.2990   -0.7500    0.0000 C   0  0
    0.0000   -1.5000    0.0000 C   0  0
    0.0000   -3.0000    0.0000 O   0  0
  1  2  1  0
  2  3  1  0
  3  4  2  0
  4  5  1  0
  5  6  1  0
  7  6  1  1
  7  8  1  0
  8  9  1  0
  9 10  1  0
 10 11  2  0
 10 12  1  0
 12  7  1  0
 12 13  1  6
 13 14  1  0
 14 15  2  0
 15 16  1  0
 16 17  2  0
 17 18  1  0
 17 19  1  0
 19 20  1  0
 20 21  1  0
 19 22  2  0
 22 14  1  0
  5 23  2  0
 23 24  1  0
 24 25  2  0
 25  3  1  0
 25 26  1  0
M  END
> <Smiles>
COc1cc(C[C@H]2COC(=O)[C@@H]2Cc2ccc(O)c(OC)c2)ccc1O

> <ID>
CHEMBL425148

> <standard_value>
23650

> <IC50_uM>
23.65

> <Activity>
No

> <pIC50>
4.626168855

> <BCI>
0

$$$$

  SciTegic03012415362D

 16 16  0  0  0  0            999 V2000
    3.8983   -0.7459    0.0000 C   0  0
    2.6003   -1.4977    0.0000 O   0  0
    1.2990   -0.7500    0.0000 C   0  0
    1.2990    0.7500    0.0000 C   0  0
    0.0000    1.5000    0.0000 C   0  0
   -0.0031    3.0008    0.0000 C   0  0
    1.2946    3.7531    0.0000 O   0  0
   -1.3039    3.7494    0.0000 C   0  0
   -1.3070    5.2502    0.0000 C   0  0
   -2.6071    5.9984    0.0000 O   0  0
   -1.2990    0.7500    0.0000 C   0  0
   -1.2990   -0.7500    0.0000 C   0  0
   -2.6003   -1.4978    0.0000 O   0  0
   -3.8983   -0.7459    0.0000 C   0  0
    0.0000   -1.5000    0.0000 C   0  0
    0.0000   -3.0000    0.0000 O   0  0
  1  2  1  0
  2  3  1  0
  3  4  2  0
  4  5  1  0
  5  6  1  0
  6  7  2  0
  6  8  1  0
  8  9  1  0
  9 10  1  0
  5 11  2  0
 11 12  1  0
 12 13  1  0
 13 14  1  0
 12 15  2  0
 15  3  1  0
 15 16  1  0
M  END
> <Smiles>
COc1cc(C(=O)CCO)cc(OC)c1O

> <ID>
CHEMBL1760596

> <standard_value>
24300

> <IC50_uM>
24.3

> <Activity>
No

> <pIC50>
4.614393726

> <BCI>
0

$$$$

  SciTegic03012415362D

 37 41  0  0  1  0            999 V2000
    0.1136   -6.4761    0.0000 C   0  0
    1.5898   -6.2096    0.0000 O   0  0
    2.0982   -4.7975    0.0000 C   0  0
    1.1277   -3.6538    0.0000 C   0  0
    1.6321   -2.2464    0.0000 C   0  0
    0.7500   -1.0323    0.0000 C   0  0  2  0  0  0
    1.2135    0.3943    0.0000 O   0  0
    0.0000    1.2760    0.0000 C   0  0
   -1.2135    0.3943    0.0000 C   0  0  2  0  0  0
   -0.7500   -1.0323    0.0000 C   0  0  1  0  0  0
   -1.9615   -1.9133    0.0000 C   0  0
   -3.1750   -1.0316    0.0000 O   0  0
   -2.7115    0.3949    0.0000 C   0  0  1  0  0  0
   -3.5934    1.6093    0.0000 C   0  0
   -3.0889    3.0166    0.0000 C   0  0
   -4.0593    4.1604    0.0000 C   0  0
   -5.5351    3.8919    0.0000 C   0  0
   -6.5037    5.0383    0.0000 O   0  0
   -5.9960    6.4507    0.0000 C   0  0  2  0  0  0
   -4.5193    6.7142    0.0000 O   0  0
   -4.0091    8.1247    0.0000 C   0  0  2  0  0  0
   -2.5310    8.3852    0.0000 C   0  0
   -1.5662    7.2367    0.0000 O   0  0
   -4.9755    9.2719    0.0000 C   0  0  1  0  0  0
   -4.4653   10.6824    0.0000 O   0  0
   -6.4522    9.0085    0.0000 C   0  0  2  0  0  0
   -7.4187   10.1556    0.0000 O   0  0
   -6.9624    7.5979    0.0000 C   0  0  1  0  0  0
   -8.4391    7.3345    0.0000 O   0  0
   -6.0404    2.4796    0.0000 C   0  0
   -7.5165    2.2079    0.0000 O   0  0
   -8.0198    0.7948    0.0000 C   0  0
   -5.0700    1.3358    0.0000 C   0  0
    3.1087   -1.9728    0.0000 C   0  0
    4.0792   -3.1166    0.0000 C   0  0
    3.5740   -4.5289    0.0000 C   0  0
    4.5444   -5.6727    0.0000 O   0  0
  1  2  1  0
  2  3  1  0
  3  4  2  0
  4  5  1  0
  6  5  1  1
  6  7  1  0
  7  8  1  0
  9  8  1  6
  9 10  1  0
 10  6  1  0
 10 11  1  6
 11 12  1  0
 12 13  1  0
 13  9  1  0
 13 14  1  1
 14 15  2  0
 15 16  1  0
 16 17  2  0
 17 18  1  0
 19 18  1  1
 19 20  1  0
 20 21  1  0
 21 22  1  1
 22 23  1  0
 21 24  1  0
 24 25  1  6
 24 26  1  0
 26 27  1  1
 26 28  1  0
 28 19  1  0
 28 29  1  6
 17 30  1  0
 30 31  1  0
 31 32  1  0
 30 33  2  0
 33 14  1  0
  5 34  2  0
 34 35  1  0
 35 36  2  0
 36  3  1  0
 36 37  1  0
M  END
> <Smiles>
COc1cc([C@@H]2OC[C@@H]3[C@H]2CO[C@H]3c2ccc(O[C@@H]3O[C@H](CO)[C@@H](O)[C@H](O)[C@H]3O)c(OC)c2)ccc1O

> <ID>
CHEMBL573336

> <standard_value>
25370

> <IC50_uM>
25.37

> <Activity>
No

> <pIC50>
4.595679533

> <BCI>
0

$$$$

  SciTegic03012415362D

 30 32  0  0  1  0            999 V2000
    2.6018   -5.9994    0.0000 C   0  0
    3.9008   -5.2492    0.0000 O   0  0
    3.9014   -3.7484    0.0000 C   0  0
    2.6012   -3.0004    0.0000 C   0  0
    2.5987   -1.5004    0.0000 C   0  0
    1.2990   -0.7500    0.0000 C   0  0  2  0  0  0
    1.2990    0.7500    0.0000 C   0  0
    0.0000    1.5000    0.0000 C   0  0
    0.0000    3.0000    0.0000 C   0  0
    1.2990    3.7500    0.0000 C   0  0
    1.2959    5.2508    0.0000 O   0  0
   -0.0042    5.9990    0.0000 C   0  0
    2.5981    3.0000    0.0000 C   0  0
    3.8971    3.7500    0.0000 O   0  0
    2.5981    1.5000    0.0000 C   0  0
    3.8994    0.7523    0.0000 O   0  0
    5.1973    1.5041    0.0000 C   0  0
   -1.2990    0.7500    0.0000 C   0  0
   -1.2990   -0.7500    0.0000 C   0  0  2  0  0  0
   -2.6003   -1.4978    0.0000 C   0  0
   -3.8983   -0.7459    0.0000 O   0  0
    0.0000   -1.5000    0.0000 C   0  0  1  0  0  0
   -0.0031   -3.0008    0.0000 C   0  0
   -1.3032   -3.7490    0.0000 O   0  0
    3.8967   -0.7484    0.0000 C   0  0
    5.1969   -1.4963    0.0000 C   0  0
    6.4939   -0.7411    0.0000 O   0  0
    6.4894    0.7589    0.0000 C   0  0
    5.1993   -2.9963    0.0000 C   0  0
    6.4995   -3.7442    0.0000 O   0  0
  1  2  1  0
  2  3  1  0
  3  4  2  0
  4  5  1  0
  6  5  1  1
  6  7  1  0
  7  8  2  0
  8  9  1  0
  9 10  2  0
 10 11  1  0
 11 12  1  0
 10 13  1  0
 13 14  1  0
 13 15  2  0
 15  7  1  0
 15 16  1  0
 16 17  1  0
  8 18  1  0
 18 19  1  0
 19 20  1  1
 20 21  1  0
 19 22  1  0
 22  6  1  0
 22 23  1  6
 23 24  1  0
  5 25  2  0
 25 26  1  0
 26 27  1  0
 27 28  1  0
 26 29  2  0
 29  3  1  0
 29 30  1  0
M  END
> <Smiles>
COc1cc([C@@H]2c3c(cc(OC)c(O)c3OC)C[C@H](CO)[C@H]2CO)cc(OC)c1O

> <ID>
CHEMBL1760594

> <standard_value>
26530

> <IC50_uM>
26.53

> <Activity>
No

> <pIC50>
4.57626275

> <BCI>
0

$$$$

  SciTegic03012415362D

 27 28  0  0  1  0            999 V2000
    3.8983   -0.7459    0.0000 C   0  0
    2.6003   -1.4977    0.0000 O   0  0
    1.2990   -0.7500    0.0000 C   0  0
    1.2990    0.7500    0.0000 C   0  0
    0.0000    1.5000    0.0000 C   0  0
   -0.0020    3.0008    0.0000 C   0  0  1  0  0  0
   -1.3023    3.7487    0.0000 O   0  0
    1.2962    3.7538    0.0000 C   0  0  1  0  0  0
    2.5988    3.0083    0.0000 C   0  0
    3.8955    3.7623    0.0000 O   0  0
    1.2942    5.2547    0.0000 O   0  0
    2.5924    6.0077    0.0000 C   0  0
    3.8915    5.2576    0.0000 C   0  0
    5.1906    6.0076    0.0000 C   0  0
    5.1907    7.5076    0.0000 C   0  0
    6.4889    8.2606    0.0000 C   0  0
    6.4868    9.7614    0.0000 C   0  0
    7.7851   10.5145    0.0000 C   0  0
    7.7830   12.0145    0.0000 O   0  0
    3.8917    8.2576    0.0000 C   0  0
    2.5926    7.5077    0.0000 C   0  0
    1.2944    8.2609    0.0000 O   0  0
    1.2967    9.7609    0.0000 C   0  0
   -1.2990    0.7500    0.0000 C   0  0
   -1.2990   -0.7500    0.0000 C   0  0
    0.0000   -1.5000    0.0000 C   0  0
    0.0000   -3.0000    0.0000 O   0  0
  1  2  1  0
  2  3  1  0
  3  4  2  0
  4  5  1  0
  5  6  1  0
  6  7  1  1
  6  8  1  0
  8  9  1  6
  9 10  1  0
  8 11  1  0
 11 12  1  0
 12 13  2  0
 13 14  1  0
 14 15  2  0
 15 16  1  0
 16 17  1  0
 17 18  1  0
 18 19  1  0
 15 20  1  0
 20 21  2  0
 21 12  1  0
 21 22  1  0
 22 23  1  0
  5 24  2  0
 24 25  1  0
 25 26  2  0
 26  3  1  0
 26 27  1  0
M  END
> <Smiles>
COc1cc([C@@H](O)[C@@H](CO)Oc2ccc(CCCO)cc2OC)ccc1O

> <ID>
CHEMBL1760591

> <standard_value>
26560

> <IC50_uM>
26.56

> <Activity>
No

> <pIC50>
4.575771929

> <BCI>
0

$$$$

  SciTegic03012415362D

 27 28  0  0  1  0            999 V2000
    3.8983   -0.7459    0.0000 C   0  0
    2.6003   -1.4977    0.0000 O   0  0
    1.2990   -0.7500    0.0000 C   0  0
    1.2990    0.7500    0.0000 C   0  0
    0.0000    1.5000    0.0000 C   0  0
   -0.0031    3.0008    0.0000 C   0  0
   -1.3039    3.7494    0.0000 C   0  0  1  0  0  0
   -2.6008    2.9940    0.0000 C   0  0
   -2.5961    1.4940    0.0000 O   0  0
   -1.3070    5.2502    0.0000 C   0  0  2  0  0  0
   -1.3094    6.7502    0.0000 O   0  0
   -0.0086    6.0029    0.0000 C   0  0
   -0.0103    7.5029    0.0000 O   0  0
   -2.6078    5.9988    0.0000 C   0  0
   -2.6109    7.4996    0.0000 C   0  0
   -3.9100    8.2496    0.0000 C   0  0
   -3.9100    9.7496    0.0000 C   0  0
   -2.6110   10.4997    0.0000 C   0  0
   -2.6111   11.9997    0.0000 O   0  0
   -1.3119    9.7497    0.0000 C   0  0
   -0.0107   10.4975    0.0000 O   0  0
    1.2873    9.7457    0.0000 C   0  0
   -1.3119    8.2497    0.0000 C   0  0
   -1.2990    0.7500    0.0000 C   0  0
   -1.2990   -0.7500    0.0000 C   0  0
    0.0000   -1.5000    0.0000 C   0  0
    0.0000   -3.0000    0.0000 O   0  0
  1  2  1  0
  2  3  1  0
  3  4  2  0
  4  5  1  0
  5  6  1  0
  7  6  1  1
  7  8  1  0
  8  9  1  0
  7 10  1  0
 10 11  1  6
 10 12  1  0
 12 13  1  0
 10 14  1  0
 14 15  1  0
 15 16  2  0
 16 17  1  0
 17 18  2  0
 18 19  1  0
 18 20  1  0
 20 21  1  0
 21 22  1  0
 20 23  2  0
 23 15  1  0
  5 24  2  0
 24 25  1  0
 25 26  2  0
 26  3  1  0
 26 27  1  0
M  END
> <Smiles>
COc1cc(C[C@@H](CO)[C@](O)(CO)Cc2ccc(O)c(OC)c2)ccc1O

> <ID>
CHEMBL1760592

> <standard_value>
27620

> <IC50_uM>
27.62

> <Activity>
No

> <pIC50>
4.558776326

> <BCI>
0

$$$$

  SciTegic03012415362D

 12 12  0  0  0  0            999 V2000
    2.5951   -3.0031    0.0000 C   0  0
    2.5973   -1.5031    0.0000 O   0  0
    1.2990   -0.7500    0.0000 C   0  0
    1.2990    0.7500    0.0000 C   0  0
    0.0000    1.5000    0.0000 C   0  0
   -1.2990    0.7500    0.0000 C   0  0
   -2.6003    1.4977    0.0000 C   0  0
   -3.8990    0.7455    0.0000 C   0  0
   -5.1996    1.4928    0.0000 O   0  0
   -3.8964   -0.7545    0.0000 O   0  0
   -1.2990   -0.7500    0.0000 C   0  0
    0.0000   -1.5000    0.0000 C   0  0
  1  2  1  0
  2  3  1  0
  3  4  2  0
  4  5  1  0
  5  6  2  0
  6  7  1  0
  7  8  1  0
  8  9  2  0
  8 10  1  0
  6 11  1  0
 11 12  2  0
 12  3  1  0
M  END
> <Smiles>
COc1ccc(CC(=O)O)cc1

> <ID>
CHEMBL1760597

> <standard_value>
28050

> <IC50_uM>
28.05

> <Activity>
No

> <pIC50>
4.552067134

> <BCI>
0

$$$$

  SciTegic03012415362D

 14 14  0  0  0  0            999 V2000
    3.8983   -0.7459    0.0000 C   0  0
    2.6003   -1.4977    0.0000 O   0  0
    1.2990   -0.7500    0.0000 C   0  0
    1.2990    0.7500    0.0000 C   0  0
    0.0000    1.5000    0.0000 C   0  0
   -0.0031    3.0008    0.0000 C   0  0
    1.2946    3.7531    0.0000 O   0  0
   -1.3039    3.7494    0.0000 C   0  0
   -1.3070    5.2502    0.0000 C   0  0
   -2.6071    5.9984    0.0000 O   0  0
   -1.2990    0.7500    0.0000 C   0  0
   -1.2990   -0.7500    0.0000 C   0  0
    0.0000   -1.5000    0.0000 C   0  0
    0.0000   -3.0000    0.0000 O   0  0
  1  2  1  0
  2  3  1  0
  3  4  2  0
  4  5  1  0
  5  6  1  0
  6  7  2  0
  6  8  1  0
  8  9  1  0
  9 10  1  0
  5 11  2  0
 11 12  1  0
 12 13  2  0
 13  3  1  0
 13 14  1  0
M  END
> <Smiles>
COc1cc(C(=O)CCO)ccc1O

> <ID>
CHEMBL485875

> <standard_value>
28410

> <IC50_uM>
28.41

> <Activity>
No

> <pIC50>
4.546528766

> <BCI>
0

$$$$

  SciTegic03012415362D

 33 36  0  0  1  0            999 V2000
   -2.3259  -11.6972    0.0000 C   0  0
   -1.3215  -10.5832    0.0000 O   0  0
   -1.7834   -9.1552    0.0000 C   0  0
   -3.2503   -8.8419    0.0000 C   0  0
   -2.7884  -10.2688    0.0000 C   0  0
   -0.7784   -8.0406    0.0000 C   0  0
   -1.2403   -6.6126    0.0000 C   0  0
   -0.2353   -5.4980    0.0000 C   0  0
   -0.6972   -4.0700    0.0000 C   0  0  2  0  0  0
   -2.1641   -3.7567    0.0000 C   0  0
    0.3061   -2.9572    0.0000 C   0  0  2  0  0  0
    1.7979   -3.1140    0.0000 C   0  0
    2.4080   -1.7436    0.0000 C   0  0
    1.2990   -0.7500    0.0000 C   0  0  2  0  0  0
    2.6686   -0.1382    0.0000 C   0  0
    1.2990    0.7500    0.0000 C   0  0  2  0  0  0
    2.5981    1.5000    0.0000 C   0  0
    2.5981    3.0000    0.0000 C   0  0
    1.2990    3.7500    0.0000 C   0  0  3  0  0  0
    1.2990    5.2500    0.0000 C   0  0
    2.5800    4.4696    0.0000 C   0  0
    1.2638    6.7496    0.0000 C   0  0
    0.0000    6.0000    0.0000 C   0  0
   -0.0001    7.5000    0.0000 O   0  0
   -1.2991    5.2500    0.0000 C   0  0
   -1.2991    3.7500    0.0000 C   0  0
    0.0000    3.0000    0.0000 C   0  0  1  0  0  0
   -1.2991    2.2500    0.0000 C   0  0
    0.0000    1.5000    0.0000 C   0  0  1  0  0  0
   -1.2990    0.7500    0.0000 C   0  0
   -1.2990   -0.7500    0.0000 C   0  0
    0.0000   -1.5000    0.0000 C   0  0  1  0  0  0
   -1.2146   -2.3802    0.0000 C   0  0
  1  2  1  0
  2  3  1  0
  3  4  1  0
  3  5  1  0
  3  6  1  0
  6  7  2  0
  7  8  1  0
  8  9  1  0
  9 10  1  6
  9 11  1  0
 11 12  1  1
 12 13  1  0
 13 14  1  0
 14 15  1  6
 14 16  1  0
 16 17  1  1
 17 18  1  0
 19 18  1  4
 19 20  1  0
 20 21  1  0
 20 22  1  0
 20 23  1  0
 23 24  2  0
 23 25  1  0
 25 26  1  0
 26 27  1  0
 27 19  1  0
 27 28  1  6
 27 29  1  0
 29 16  1  0
 29 30  1  6
 30 31  1  0
 31 32  1  0
 32 11  1  0
 32 14  1  0
 32 33  1  1
M  END
> <Smiles>
COC(C)(C)/C=C/C[C@H](C)[C@@H]1CC[C@]2(C)[C@@H]3CCC4C(C)(C)C(=O)CC[C@]4(C)[C@H]3CC[C@@]12C

> <ID>
CHEMBL2069125

> <standard_value>
28670

> <IC50_uM>
28.67

> <Activity>
No

> <pIC50>
4.542572307

> <BCI>
0

$$$$

  SciTegic03012415362D

 18 20  0  0  0  0            999 V2000
    2.5981   -1.5000    0.0000 C   0  0
    1.2990   -0.7500    0.0000 C   0  0
    1.2990    0.7500    0.0000 C   0  0
    0.0000    1.5000    0.0000 C   0  0
   -1.2990    0.7500    0.0000 C   0  0
   -2.5981    1.5000    0.0000 C   0  0
   -2.5981    3.0000    0.0000 S   0  0
   -3.8971    0.7500    0.0000 N   0  0
   -3.8971   -0.7500    0.0000 C   0  0
   -5.1968   -1.5004    0.0000 C   0  0
   -6.4971   -0.7525    0.0000 C   0  0
   -7.7950   -1.5046    0.0000 C   0  0
   -7.7926   -3.0046    0.0000 C   0  0
   -6.4923   -3.7525    0.0000 C   0  0
   -5.1945   -3.0005    0.0000 C   0  0
   -2.5981   -1.5000    0.0000 C   0  0
   -1.2990   -0.7500    0.0000 C   0  0
    0.0000   -1.5000    0.0000 C   0  0
  1  2  1  0
  2  3  2  0
  3  4  1  0
  4  5  2  0
  5  6  1  0
  6  7  1  0
  6  8  2  0
  8  9  1  0
  9 10  1  0
 10 11  2  0
 11 12  1  0
 12 13  2  0
 13 14  1  0
 14 15  2  0
 15 10  1  0
  9 16  2  0
 16 17  1  0
 17  5  1  0
 17 18  2  0
 18  2  1  0
M  END
> <Smiles>
Cc1ccc2c(S)nc(-c3ccccc3)cc2c1

> <ID>
CHEMBL337547

> <standard_value>
75860

> <IC50_uM>
75.86

> <Activity>
No

> <pIC50>
4.119987162

> <BCI>
0

$$$$

  SciTegic03012415362D

 52 57  0  0  0  0            999 V2000
  -15.1705  -18.2025    0.0000 C   0  0
  -13.9857  -19.1225    0.0000 N   0  0
  -14.1906  -20.6085    0.0000 C   0  0
  -12.5955  -18.5571    0.0000 C   0  0
  -11.4101  -19.4776    0.0000 C   0  0
  -10.0199  -18.9121    0.0000 N   0  0
   -8.8345  -19.8326    0.0000 C   0  0
   -9.0393  -21.3186    0.0000 O   0  0
   -7.4466  -19.2681    0.0000 C   0  0
   -7.0901  -17.8111    0.0000 C   0  0
   -5.6105  -17.7195    0.0000 C   0  0
   -4.7234  -16.5090    0.0000 C   0  0
   -5.1811  -15.0805    0.0000 C   0  0
   -3.9641  -14.2256    0.0000 C   0  0
   -3.9549  -12.7248    0.0000 N   0  0
   -2.6510  -11.9816    0.0000 C   0  0
   -1.3563  -12.7392    0.0000 O   0  0
   -2.6418  -10.4808    0.0000 C   0  0
   -1.3379   -9.7376    0.0000 C   0  0
   -1.3287   -8.2368    0.0000 C   0  0
   -0.0248   -7.4935    0.0000 C   0  0
    1.2698   -8.2511    0.0000 O   0  0
   -0.0156   -5.9927    0.0000 N   0  0
    1.2883   -5.2495    0.0000 C   0  0
    2.5847   -6.0040    0.0000 C   0  0
    3.8864   -5.2585    0.0000 C   0  0
    5.1851   -6.0107    0.0000 C   0  0
    6.4856   -5.2633    0.0000 O   0  0
    3.8915   -3.7585    0.0000 C   0  0
    2.5951   -3.0039    0.0000 C   0  0
    2.5973   -1.5031    0.0000 N   0  0
    1.2990   -0.7500    0.0000 C   0  0
    1.2990    0.7500    0.0000 C   0  0
    2.5981    1.5000    0.0000 C   0  0
    2.5981    3.0000    0.0000 C   0  0
    1.2990    3.7500    0.0000 C   0  0
    0.0000    3.0000    0.0000 C   0  0
    0.0000    1.5000    0.0000 C   0  0
   -1.2990    0.7500    0.0000 N   0  0
   -1.2990   -0.7500    0.0000 C   0  0
   -2.5981   -1.5000    0.0000 C   0  0
   -2.5981   -3.0000    0.0000 C   0  0
   -1.2990   -3.7500    0.0000 C   0  0
    0.0000   -3.0000    0.0000 C   0  0
    0.0000   -1.5000    0.0000 C   0  0
    1.2935   -3.7495    0.0000 C   0  0
   -2.7541  -15.0904    0.0000 C   0  0
   -3.2234  -16.5151    0.0000 N   0  0
   -2.3467  -17.7322    0.0000 C   0  0
   -5.0262  -19.0882    0.0000 C   0  0
   -6.1711  -20.0574    0.0000 N   0  0
   -6.0598  -21.5533    0.0000 C   0  0
  1  2  1  0
  2  3  1  0
  2  4  1  0
  4  5  1  0
  5  6  1  0
  6  7  1  0
  7  8  2  0
  7  9  1  0
  9 10  2  0
 10 11  1  0
 11 12  1  0
 12 13  2  0
 13 14  1  0
 14 15  1  0
 15 16  1  0
 16 17  2  0
 16 18  1  0
 18 19  1  0
 19 20  1  0
 20 21  1  0
 21 22  2  0
 21 23  1  0
 23 24  1  0
 24 25  2  0
 25 26  1  0
 26 27  1  0
 27 28  1  0
 26 29  2  0
 29 30  1  0
 30 31  1  0
 31 32  1  0
 32 33  2  0
 33 34  1  0
 34 35  2  0
 35 36  1  0
 36 37  2  0
 37 38  1  0
 38 33  1  0
 38 39  2  0
 39 40  1  0
 40 41  2  0
 41 42  1  0
 42 43  2  0
 43 44  1  0
 44 45  2  0
 45 32  1  0
 45 40  1  0
 30 46  2  0
 46 24  1  0
 14 47  2  0
 47 48  1  0
 48 12  1  0
 48 49  1  0
 11 50  2  0
 50 51  1  0
 51  9  1  0
 51 52  1  0
M  END
> <Smiles>
CN(C)CCNC(=O)c1cc(-c2cc(NC(=O)CCCC(=O)Nc3cc(CO)cc(Nc4c5ccccc5nc5ccccc45)c3)cn2C)cn1C

> <ID>
CHEMBL335568

> <standard_value>
36800

> <IC50_uM>
36.8

> <Activity>
No

> <pIC50>
-1.565847819

> <BCI>
0

$$$$

  SciTegic03012415362D

 30 34  0  0  0  0            999 V2000
    6.8167   -0.8257    0.0000 O   0  0
    6.3509   -2.2515    0.0000 C   0  0
    7.3538   -3.3681    0.0000 C   0  0
    8.8224   -3.0588    0.0000 C   0  0
    9.8252   -4.1754    0.0000 C   0  0
   11.2935   -3.8684    0.0000 C   0  0
   12.2936   -4.9864    0.0000 C   0  0
   11.8254   -6.4115    0.0000 C   0  0
   10.3571   -6.7185    0.0000 C   0  0
    9.3571   -5.6005    0.0000 C   0  0
    4.8823   -2.5608    0.0000 O   0  0
    3.8794   -1.4442    0.0000 N   0  0
    2.4133   -1.7530    0.0000 C   0  0
    1.7982   -3.1201    0.0000 C   0  0
    2.4031   -4.4928    0.0000 C   0  0
    1.5169   -5.7029    0.0000 C   0  0
    0.0257   -5.5405    0.0000 C   0  0
   -0.5793   -4.1679    0.0000 C   0  0
    0.3070   -2.9577    0.0000 C   0  0
    0.0006   -1.4902    0.0000 N   0  0
    1.3024   -0.7451    0.0000 C   0  0
    1.3087    0.7538    0.0000 N   0  0
    0.0125    1.5087    0.0000 C   0  0
    0.0181    3.0087    0.0000 C   0  0
   -1.2781    3.7636    0.0000 C   0  0
   -2.5799    3.0185    0.0000 C   0  0
   -2.5856    1.5185    0.0000 C   0  0
   -1.2894    0.7636    0.0000 C   0  0
   -1.2950   -0.7364    0.0000 C   0  0
   -2.5967   -1.4818    0.0000 O   0  0
  1  2  2  0
  2  3  1  0
  3  4  2  0
  4  5  1  0
  5  6  2  0
  6  7  1  0
  7  8  2  0
  8  9  1  0
  9 10  2  0
 10  5  1  0
  2 11  1  0
 11 12  1  0
 12 13  2  0
 13 14  1  0
 14 15  2  0
 15 16  1  0
 16 17  2  0
 17 18  1  0
 18 19  2  0
 19 14  1  0
 19 20  1  0
 20 21  1  0
 21 13  1  0
 21 22  2  0
 22 23  1  0
 23 24  2  0
 24 25  1  0
 25 26  2  0
 26 27  1  0
 27 28  2  0
 28 23  1  0
 28 29  1  0
 29 20  1  0
 29 30  2  0
M  END
> <Smiles>
O=C(/C=C/c1ccccc1)O/N=C1\c2ccccc2-n2c1nc1ccccc1c2=O

> <ID>
CHEMBL76072

> <standard_value>
20000

> <IC50_uM>
20

> <Activity>
No

> <pIC50>
4.698970004

> <BCI>
0

$$$$

  SciTegic03012415362D

 20 23  0  0  0  0            999 V2000
    2.5981   -1.5000    0.0000 C   0  0
    1.2990   -0.7500    0.0000 C   0  0
    1.2990    0.7500    0.0000 C   0  0
    0.0000    1.5000    0.0000 C   0  0
   -1.2990    0.7500    0.0000 C   0  0
   -1.2990   -0.7500    0.0000 C   0  0
    0.0000   -1.5000    0.0000 C   0  0
   -2.7248   -1.2135    0.0000 C   0  0
   -3.1882   -2.6402    0.0000 O   0  0
   -3.6065    0.0000    0.0000 C   0  0
   -5.0972    0.1560    0.0000 N   0  0
   -5.7073    1.5264    0.0000 C   0  0
   -7.1991    1.6831    0.0000 C   0  0
   -7.8092    3.0535    0.0000 C   0  0
   -6.9275    4.2670    0.0000 C   0  0
   -5.4358    4.1102    0.0000 C   0  0
   -4.8257    2.7399    0.0000 C   0  0
   -3.3339    2.5831    0.0000 C   0  0
   -2.4519    3.7964    0.0000 O   0  0
   -2.7248    1.2135    0.0000 N   0  0
  1  2  1  0
  2  3  2  0
  3  4  1  0
  4  5  2  0
  5  6  1  0
  6  7  2  0
  7  2  1  0
  6  8  1  0
  8  9  2  0
  8 10  1  0
 10 11  2  0
 11 12  1  0
 12 13  2  0
 13 14  1  0
 14 15  2  0
 15 16  1  0
 16 17  2  0
 17 12  1  0
 17 18  1  0
 18 19  2  0
 18 20  1  0
 20 10  1  0
 20  5  1  0
M  END
> <Smiles>
Cc1ccc2c(c1)C(=O)c1nc3ccccc3c(=O)n1-2

> <ID>
CHEMBL312537

> <standard_value>
20000

> <IC50_uM>
20

> <Activity>
No

> <pIC50>
4.698970004

> <BCI>
0

$$$$

  SciTegic03012415362D

 25 26  0  0  1  0            999 V2000
    2.5981   -1.5000    0.0000 C   0  0
    1.2990   -0.7500    0.0000 C   0  0
    1.2990    0.7500    0.0000 C   0  0
    0.0000    1.5000    0.0000 C   0  0
   -1.2990    0.7500    0.0000 C   0  0  2  0  0  0
   -2.5988    1.5004    0.0000 C   0  0
   -3.8976    0.7500    0.0000 C   0  0
   -3.8982    2.2498    0.0000 C   0  0
   -2.5998    3.0012    0.0000 N   0  0
   -3.8995    3.7516    0.0000 C   0  0
   -5.1983    3.0012    0.0000 S   0  0
   -3.9005    5.2525    0.0000 N   0  0
   -5.2002    6.0029    0.0000 N   0  0
   -5.2012    7.5037    0.0000 C   0  0
   -6.5009    8.2541    0.0000 C   0  0
   -7.7985    7.5015    0.0000 C   0  0
   -9.0991    8.2488    0.0000 C   0  0
   -9.1022    9.7488    0.0000 C   0  0
   -7.8046   10.5015    0.0000 C   0  0
   -6.5041    9.7541    0.0000 C   0  0
   -5.2074   10.5099    0.0000 N   0  3
   -5.2127   12.0099    0.0000 O   0  0
   -3.9055    9.7649    0.0000 O   0  5
   -1.2990   -0.7500    0.0000 C   0  0
    0.0000   -1.5000    0.0000 C   0  0
  1  2  1  0
  2  3  2  0
  3  4  1  0
  4  5  1  0
  5  6  1  1
  6  7  1  0
  6  8  1  0
  6  9  1  0
  9 10  1  0
 10 11  2  0
 10 12  1  0
 12 13  1  0
 13 14  2  0
 14 15  1  0
 15 16  2  0
 16 17  1  0
 17 18  2  0
 18 19  1  0
 19 20  2  0
 20 15  1  0
 20 21  1  0
 21 22  2  0
 21 23  1  0
  5 24  1  0
 24 25  1  0
 25  2  1  0
M  CHG  2  21   1  23  -1
M  END
> <Smiles>
CC1=CC[C@H](C(C)(C)NC(=S)N/N=C/c2ccccc2[N+](=O)[O-])CC1

> <ID>
CHEMBL3235026

> <standard_value>
20200

> <IC50_uM>
20.2

> <Activity>
No

> <pIC50>
4.694648631

> <BCI>
0

$$$$

  SciTegic03012415362D

 27 30  0  0  0  0            999 V2000
    3.8919   -5.2525    0.0000 F   0  0
    3.8943   -3.7525    0.0000 C   0  0
    2.5965   -3.0004    0.0000 C   0  0
    2.5987   -1.5004    0.0000 C   0  0
    1.2990   -0.7500    0.0000 C   0  0
    1.2990    0.7500    0.0000 N   0  0
    0.0000    1.5000    0.0000 N   0  0
   -1.2990    0.7500    0.0000 C   0  0
   -2.4133    1.7530    0.0000 N   0  0
   -1.8032    3.1233    0.0000 N   0  0
   -0.3115    2.9665    0.0000 C   0  0
    0.6928    4.0817    0.0000 C   0  0
    2.1327    3.6551    0.0000 C   0  0
    3.2175    4.6910    0.0000 C   0  0
    4.6571    4.2695    0.0000 F   0  0
    2.8628    6.1485    0.0000 C   0  0
    3.9477    7.1844    0.0000 Cl  0  0
    1.4233    6.5700    0.0000 C   0  0
    0.3384    5.5341    0.0000 C   0  0
   -1.1012    5.9552    0.0000 Cl  0  0
   -1.2990   -0.7500    0.0000 S   0  0
    0.0000   -1.5000    0.0000 C   0  0
    3.8991   -0.7525    0.0000 C   0  0
    3.9015    0.7475    0.0000 Cl  0  0
    5.1969   -1.5045    0.0000 C   0  0
    5.1945   -3.0045    0.0000 C   0  0
    6.4924   -3.7566    0.0000 Cl  0  0
  1  2  1  0
  2  3  2  0
  3  4  1  0
  4  5  1  0
  5  6  2  0
  6  7  1  0
  7  8  1  0
  8  9  2  0
  9 10  1  0
 10 11  2  0
 11  7  1  0
 11 12  1  0
 12 13  2  0
 13 14  1  0
 14 15  1  0
 14 16  2  0
 16 17  1  0
 16 18  1  0
 18 19  2  0
 19 12  1  0
 19 20  1  0
  8 21  1  0
 21 22  1  0
 22  5  1  0
  4 23  2  0
 23 24  1  0
 23 25  1  0
 25 26  2  0
 26  2  1  0
 26 27  1  0
M  END
> <Smiles>
Fc1cc(C2=Nn3c(nnc3-c3cc(F)c(Cl)cc3Cl)SC2)c(Cl)cc1Cl

> <ID>
CHEMBL571932

> <standard_value>
20400

> <IC50_uM>
20.4

> <Activity>
No

> <pIC50>
4.690369833

> <BCI>
0

$$$$

  SciTegic03012415362D

 28 30  0  0  0  0            999 V2000
    2.5983   -3.0004    0.0000 N   0  0
    2.5988   -1.5004    0.0000 S   0  0
    3.8983   -0.7512    0.0000 O   0  0
    3.8975   -2.2510    0.0000 O   0  0
    1.2990   -0.7500    0.0000 C   0  0
    1.2990    0.7500    0.0000 C   0  0
    0.0000    1.5000    0.0000 C   0  0
   -1.2990    0.7500    0.0000 C   0  0
   -2.6003    1.4977    0.0000 N   0  0
   -3.8990    0.7455    0.0000 C   0  0
   -5.2526    1.3618    0.0000 N   0  0
   -6.2524    0.2436    0.0000 C   0  0
   -7.7447    0.3952    0.0000 O   0  0
   -5.4979   -1.0529    0.0000 C   0  0  3  0  0  0
   -6.0996   -2.4249    0.0000 C   0  0
   -5.2115   -3.6348    0.0000 C   0  0
   -3.7206   -3.4702    0.0000 O   0  0
   -5.8143   -5.0092    0.0000 N   0  0
   -4.9262   -6.2191    0.0000 C   0  0
   -5.5267   -7.5936    0.0000 C   0  0
   -4.6366   -8.8010    0.0000 C   0  0
   -3.1459   -8.6338    0.0000 C   0  0
   -2.2558   -9.8412    0.0000 Br  0  0
   -2.5454   -7.2593    0.0000 C   0  0
   -3.4355   -6.0519    0.0000 C   0  0
   -4.0317   -0.7359    0.0000 S   0  0
   -1.2990   -0.7500    0.0000 C   0  0
    0.0000   -1.5000    0.0000 C   0  0
  1  2  1  0
  2  3  2  0
  2  4  2  0
  2  5  1  0
  5  6  2  0
  6  7  1  0
  7  8  2  0
  8  9  1  0
  9 10  1  0
 10 11  2  0
 11 12  1  0
 12 13  2  0
 12 14  1  0
 14 15  1  4
 15 16  1  0
 16 17  2  0
 16 18  1  0
 18 19  1  0
 19 20  2  0
 20 21  1  0
 21 22  2  0
 22 23  1  0
 22 24  1  0
 24 25  2  0
 25 19  1  0
 14 26  1  0
 26 10  1  0
  8 27  1  0
 27 28  2  0
 28  5  1  0
M  END
> <Smiles>
NS(=O)(=O)c1ccc(NC2=NC(=O)C(CC(=O)Nc3ccc(Br)cc3)S2)cc1

> <ID>
CHEMBL3779923

> <standard_value>
20700

> <IC50_uM>
20.7

> <Activity>
No

> <pIC50>
4.684029655

> <BCI>
0

$$$$

  SciTegic03012415362D

 28 31  0  0  0  0            999 V2000
    3.7332   -0.7121    0.0000 O   0  0
    3.1255   -2.0835    0.0000 C   0  0
    1.6332   -2.2426    0.0000 C   0  0
    0.7500   -1.0323    0.0000 C   0  0
    1.2135    0.3943    0.0000 C   0  0
    0.0000    1.2760    0.0000 S   0  0
   -1.2135    0.3943    0.0000 C   0  0
   -2.7115    0.3949    0.0000 N   0  0
   -3.1750   -1.0317    0.0000 C   0  0
   -4.6023   -1.4954    0.0000 C   0  0
   -5.7850   -0.5808    0.0000 C   0  0
   -7.1726   -1.1503    0.0000 C   0  0
   -7.3732   -2.6369    0.0000 C   0  0
   -8.7608   -3.2064    0.0000 Br  0  0
   -6.1861   -3.5538    0.0000 C   0  0
   -4.7984   -2.9843    0.0000 C   0  0
   -1.9615   -1.9133    0.0000 C   0  0
   -0.7500   -1.0323    0.0000 N   0  0
    4.0102   -3.2959    0.0000 N   0  0
    5.5026   -3.1368    0.0000 N   0  0
    6.3873   -4.3492    0.0000 C   0  0
    7.8797   -4.1902    0.0000 C   0  0
    8.7657   -5.4006    0.0000 C   0  0
   10.2569   -5.2386    0.0000 C   0  0
   10.8622   -3.8662    0.0000 C   0  0
   12.3534   -3.7042    0.0000 O   0  0
    9.9763   -2.6557    0.0000 C   0  0
    8.4851   -2.8177    0.0000 C   0  0
  1  2  2  0
  2  3  1  0
  3  4  1  0
  4  5  2  0
  5  6  1  0
  6  7  1  0
  7  8  2  0
  8  9  1  0
  9 10  1  0
 10 11  2  0
 11 12  1  0
 12 13  2  0
 13 14  1  0
 13 15  1  0
 15 16  2  0
 16 10  1  0
  9 17  2  0
 17 18  1  0
 18  4  1  0
 18  7  1  0
  2 19  1  0
 19 20  1  0
 20 21  2  0
 21 22  1  0
 22 23  2  0
 23 24  1  0
 24 25  2  0
 25 26  1  0
 25 27  1  0
 27 28  2  0
 28 22  1  0
M  END
> <Smiles>
O=C(Cc1csc2nc(-c3ccc(Br)cc3)cn12)N/N=C/c1ccc(O)cc1

> <ID>
CHEMBL397725

> <standard_value>
21379.62

> <IC50_uM>
21.37962

> <Activity>
No

> <pIC50>
4.670000018

> <BCI>
0

$$$$

  SciTegic03012415362D

 13 12  0  0  0  0            999 V2000
    0.0007    0.0004    0.0000 C   0  0
    1.3000    0.7500    0.0000 C   0  0
    1.3000    2.2500    0.0000 C   0  0
    2.6000    0.0000    0.0000 As  0  0
    3.9000    0.7500    0.0000 S   0  0
    5.2000    0.0000    0.0000 C   0  0
    6.5000    0.7500    0.0000 C   0  0  3  0  0  0
    6.5000    2.2500    0.0000 O   0  0
    7.7999    0.0000    0.0000 C   0  0
    9.0992    0.7496    0.0000 O   0  0
    2.6031   -1.5008    0.0000 C   0  0
    3.9032   -2.2490    0.0000 C   0  0
    1.3053   -2.2531    0.0000 C   0  0
  1  2  1  0
  2  3  1  0
  2  4  1  0
  4  5  1  0
  5  6  1  0
  6  7  1  0
  7  8  1  4
  7  9  1  0
  9 10  1  0
  4 11  1  0
 11 12  1  0
 11 13  1  0
M  END
> <Smiles>
CC(C)[As](SCC(O)CO)C(C)C

> <ID>
CHEMBL390470

> <standard_value>
21379.62

> <IC50_uM>
21.37962

> <Activity>
No

> <pIC50>
4.670000018

> <BCI>
0

$$$$

  SciTegic03012415362D

 19 22  0  0  0  0            999 V2000
   -2.8574   -0.6270    0.0000 N   0  0
   -1.3945   -0.2956    0.0000 C   0  0  3  0  0  0
    0.1617    0.6018    0.0000 C   0  0  3  0  0  0
    1.1611   -0.4060    0.0000 C   0  0
    2.5666   -0.5663    0.0000 C   0  0  3  0  0  0
    3.0920    0.8235    0.0000 C   0  0
    1.9938    1.8282    0.0000 C   0  0  3  0  0  0
    0.6134    1.8427    0.0000 C   0  0
    0.6319    1.0357    0.0000 C   0  0
    0.1050   -0.4120    0.0000 C   0  0  3  0  0  0
    1.3811   -1.2058    0.0000 C   0  0
    1.3381   -2.7060    0.0000 C   0  0
    2.8057   -3.0154    0.0000 C   0  0
    3.2716   -4.4412    0.0000 C   0  0
    2.2697   -5.5576    0.0000 C   0  0
    2.7356   -6.9834    0.0000 F   0  0
    0.8020   -5.2482    0.0000 C   0  0
    0.3361   -3.8224    0.0000 C   0  0
    1.2094   -1.3995    0.0000 C   0  0
  2  1  1  4
  2  3  1  0
  3  4  1  4
  5  4  1  4
  5  6  1  0
  7  6  1  4
  7  8  1  0
  8  3  1  0
  7  9  1  0
  9 10  1  0
 10  2  1  0
 10 11  1  4
 11 12  1  0
 12 13  2  0
 13 14  1  0
 14 15  2  0
 15 16  1  0
 15 17  1  0
 17 18  2  0
 18 12  1  0
 10 19  1  0
 19  5  1  0
M  END
> <Smiles>
Cl.NC1C2CC3CC(C2)CC1(Cc1ccc(F)cc1)C3

> <ID>
CHEMBL2430839

> <standard_value>
21810

> <IC50_uM>
21.81

> <Activity>
No

> <pIC50>
4.661344334

> <BCI>
0

> <RemovedSalts>
HCl

$$$$

  SciTegic03012415362D

 27 30  0  0  0  0            999 V2000
    3.8912   -5.2570    0.0000 C   0  0
    3.8933   -3.7570    0.0000 C   0  0
    2.5951   -3.0039    0.0000 O   0  0
    2.5973   -1.5031    0.0000 C   0  0
    3.8976   -0.7553    0.0000 O   0  0
    1.2990   -0.7500    0.0000 C   0  0
    1.2990    0.7500    0.0000 C   0  0
    0.0000    1.5000    0.0000 C   0  0
   -1.2990    0.7500    0.0000 C   0  0
   -2.4133    1.7530    0.0000 N   0  0
   -1.8032    3.1233    0.0000 C   0  0
   -2.4135    4.4923    0.0000 C   0  0
   -1.5318    5.7059    0.0000 C   0  0
   -0.0400    5.5491    0.0000 C   0  0
    0.8446    6.7615    0.0000 O   0  0
    2.3362    6.6026    0.0000 C   0  0
    0.5701    4.1788    0.0000 C   0  0
   -0.3115    2.9665    0.0000 C   0  0
   -1.2990   -0.7500    0.0000 C   0  0
   -2.5987   -1.5004    0.0000 C   0  0
   -2.5964   -3.0004    0.0000 C   0  0
   -3.8943   -3.7525    0.0000 C   0  0
   -5.1945   -3.0046    0.0000 C   0  0
   -5.1969   -1.5046    0.0000 C   0  0
   -3.8990   -0.7525    0.0000 C   0  0
   -3.9015    0.7475    0.0000 Cl  0  0
    0.0000   -1.5000    0.0000 N   0  0
  1  2  1  0
  2  3  1  0
  3  4  1  0
  4  5  2  0
  4  6  1  0
  6  7  2  0
  7  8  1  0
  8  9  2  0
  9 10  1  0
 10 11  1  0
 11 12  2  0
 12 13  1  0
 13 14  2  0
 14 15  1  0
 15 16  1  0
 14 17  1  0
 17 18  2  0
 18 11  1  0
 18  8  1  0
  9 19  1  0
 19 20  1  0
 20 21  2  0
 21 22  1  0
 22 23  2  0
 23 24  1  0
 24 25  2  0
 25 20  1  0
 25 26  1  0
 19 27  2  0
 27  6  1  0
M  END
> <Smiles>
CCOC(=O)c1cc2c([nH]c3ccc(OC)cc32)c(-c2ccccc2Cl)n1

> <ID>
CHEMBL4457838

> <standard_value>
22050

> <IC50_uM>
22.05

> <Activity>
No

> <pIC50>
4.656591406

> <BCI>
0

$$$$

  SciTegic03012415362D

 25 28  0  0  0  0            999 V2000
    3.8978   -2.2504    0.0000 N   0  0
    2.5988   -1.5004    0.0000 C   0  0
    1.2990   -0.7500    0.0000 C   0  0
    1.2990    0.7500    0.0000 C   0  0
    2.5987    1.5004    0.0000 C   0  0
    3.8991    0.7525    0.0000 C   0  0
    5.1969    1.5046    0.0000 C   0  0
    5.1945    3.0046    0.0000 C   0  0
    3.8943    3.7525    0.0000 C   0  0
    2.5964    3.0004    0.0000 C   0  0
    0.0000    1.5000    0.0000 N   0  0
   -1.2990    0.7500    0.0000 C   0  0
   -2.6003    1.4977    0.0000 S   0  0
   -3.8990    0.7455    0.0000 C   0  0
   -5.2003    1.4932    0.0000 C   0  0  3  0  0  0
   -6.6212    1.4476    0.0000 C   0  0
   -5.8711    2.7466    0.0000 O   0  0
   -1.2990   -0.7500    0.0000 N   0  0
    0.0000   -1.5000    0.0000 C   0  0
    0.0000   -3.0008    0.0000 N   0  0
   -1.2978   -3.7529    0.0000 C   0  0
   -1.2955   -5.2529    0.0000 C   0  0
    0.0048   -6.0009    0.0000 O   0  0
    1.3026   -5.2488    0.0000 C   0  0
    1.3002   -3.7488    0.0000 C   0  0
  1  2  3  0
  2  3  1  0
  3  4  2  0
  4  5  1  0
  5  6  2  0
  6  7  1  0
  7  8  2  0
  8  9  1  0
  9 10  2  0
 10  5  1  0
  4 11  1  0
 11 12  2  0
 12 13  1  0
 13 14  1  0
 15 14  1  4
 15 16  1  0
 16 17  1  0
 17 15  1  0
 12 18  1  0
 18 19  2  0
 19  3  1  0
 19 20  1  0
 20 21  1  0
 21 22  1  0
 22 23  1  0
 23 24  1  0
 24 25  1  0
 25 20  1  0
M  END
> <Smiles>
N#Cc1c(-c2ccccc2)nc(SCC2CO2)nc1N1CCOCC1

> <ID>
CHEMBL2415030

> <standard_value>
22100

> <IC50_uM>
22.1

> <Activity>
No

> <pIC50>
4.655607726

> <BCI>
0

$$$$

  SciTegic03012415362D

 23 25  0  0  0  0            999 V2000
    1.0255   -3.6140    0.0000 N   0  0
    1.6332   -2.2426    0.0000 C   0  0
    3.1247   -2.0836    0.0000 O   0  0
    0.7500   -1.0323    0.0000 C   0  0
    1.2135    0.3943    0.0000 C   0  0
    2.6375    0.8603    0.0000 N   0  0
    2.9474    2.3287    0.0000 C   0  0
    1.8309    3.3305    0.0000 S   0  0
    4.3738    2.7955    0.0000 N   0  0
    4.6837    4.2640    0.0000 C   0  0
    3.5672    5.2657    0.0000 O   0  0
    6.1101    4.7307    0.0000 C   0  0
    6.4220    6.1980    0.0000 C   0  0
    7.8486    6.6616    0.0000 C   0  0
    8.9633    5.6579    0.0000 C   0  0
    8.6515    4.1907    0.0000 C   0  0
    7.2250    3.7271    0.0000 C   0  0
    0.0000    1.2760    0.0000 S   0  0
   -1.2135    0.3943    0.0000 C   0  0
   -0.7500   -1.0323    0.0000 C   0  0
   -1.9615   -1.9133    0.0000 C   0  0
   -3.1750   -1.0316    0.0000 C   0  0
   -2.7115    0.3949    0.0000 C   0  0
  1  2  1  0
  2  3  2  0
  2  4  1  0
  4  5  2  0
  5  6  1  0
  6  7  1  0
  7  8  2  0
  7  9  1  0
  9 10  1  0
 10 11  2  0
 10 12  1  0
 12 13  2  0
 13 14  1  0
 14 15  2  0
 15 16  1  0
 16 17  2  0
 17 12  1  0
  5 18  1  0
 18 19  1  0
 19 20  2  0
 20  4  1  0
 20 21  1  0
 21 22  1  0
 22 23  1  0
 23 19  1  0
M  END
> <Smiles>
NC(=O)c1c(NC(=S)NC(=O)c2ccccc2)sc2c1CCC2

> <ID>
CHEMBL4757077

> <standard_value>
24370

> <IC50_uM>
24.37

> <Activity>
No

> <pIC50>
4.613144471

> <BCI>
0

$$$$

  SciTegic03012415362D

 32 37  0  0  0  0            999 V2000
    3.8983   -0.7459    0.0000 C   0  0
    2.6003   -1.4977    0.0000 O   0  0
    1.2990   -0.7500    0.0000 C   0  0
    1.2990    0.7500    0.0000 C   0  0
    0.0000    1.5000    0.0000 C   0  0
   -0.0031    3.0008    0.0000 C   0  0
   -1.3039    3.7494    0.0000 N   0  0
   -1.4469    5.2290    0.0000 C   0  0
   -0.4469    6.3470    0.0000 C   0  0
   -0.9152    7.7721    0.0000 C   0  0
   -2.3834    8.0791    0.0000 C   0  0
   -3.3834    6.9610    0.0000 C   0  0
   -2.9151    5.5360    0.0000 C   0  0
   -3.6606    4.2353    0.0000 C   0  0
   -5.1259    3.9194    0.0000 C   0  0
   -5.5847    2.4913    0.0000 C   0  0
   -7.0508    2.1745    0.0000 C   0  0
   -4.5773    1.3799    0.0000 C   0  0
   -3.1111    1.6966    0.0000 C   0  0
   -2.1050    0.5830    0.0000 O   0  0
   -2.5652   -0.8447    0.0000 C   0  0
   -2.6533    3.1239    0.0000 C   0  0
   -1.2990    0.7500    0.0000 C   0  0
   -1.2990   -0.7500    0.0000 C   0  0
    0.0000   -1.5000    0.0000 C   0  0
   -0.3114   -2.9665    0.0000 N   0  0
   -1.8032   -3.1233    0.0000 C   0  0
   -2.6837   -4.3363    0.0000 C   0  0
   -4.1755   -4.1795    0.0000 C   0  0
   -4.7856   -2.8092    0.0000 C   0  0
   -3.9040   -1.5957    0.0000 C   0  0
   -2.4133   -1.7530    0.0000 C   0  0
  1  2  1  0
  2  3  1  0
  3  4  2  0
  4  5  1  0
  5  6  1  0
  6  7  1  0
  7  8  1  0
  8  9  2  0
  9 10  1  0
 10 11  2  0
 11 12  1  0
 12 13  2  0
 13  8  1  0
 13 14  1  0
 14 15  2  0
 15 16  1  0
 16 17  1  0
 16 18  2  0
 18 19  1  0
 19 20  1  0
 20 21  1  0
 19 22  2  0
 22 14  1  0
 22  7  1  0
  5 23  2  0
 23 24  1  0
 24 25  2  0
 25  3  1  0
 25 26  1  0
 26 27  1  0
 27 28  2  0
 28 29  1  0
 29 30  2  0
 30 31  1  0
 31 32  2  0
 32 27  1  0
 32 24  1  0
M  END
> <Smiles>
COc1cc(Cn2c3ccccc3c3cc(C)cc(OC)c32)cc2c1[nH]c1ccccc12

> <ID>
CHEMBL496078

> <standard_value>
25118.86

> <IC50_uM>
25.11886

> <Activity>
No

> <pIC50>
4.600000075

> <BCI>
0

$$$$

  SciTegic03012415362D

 29 32  0  0  0  0            999 V2000
    9.0912    0.7685    0.0000 C   0  0
    7.7907    1.5158    0.0000 O   0  0
    6.4920    0.7636    0.0000 C   0  0
    6.4972   -0.7364    0.0000 C   0  0
    5.2007   -1.4909    0.0000 C   0  0
    3.8990   -0.7455    0.0000 C   0  0
    2.6003   -1.4977    0.0000 N   0  0
    1.2990   -0.7500    0.0000 C   0  0
    1.2990    0.7500    0.0000 N   0  0
    0.0000    1.5000    0.0000 C   0  0
    0.0000    3.0000    0.0000 C   0  0
   -1.2991    3.7500    0.0000 C   0  0
   -1.2991    5.2500    0.0000 N   0  0
   -2.5981    3.0000    0.0000 C   0  0
   -2.5981    1.5000    0.0000 C   0  0
   -3.8971    0.7500    0.0000 N   0  0
   -1.2990    0.7500    0.0000 C   0  0
   -1.2990   -0.7500    0.0000 N   0  0
    0.0000   -1.5000    0.0000 C   0  0
    0.0000   -3.0008    0.0000 C   0  0
   -1.2978   -3.7529    0.0000 C   0  0
   -1.2955   -5.2529    0.0000 C   0  0
    0.0048   -6.0009    0.0000 C   0  0
    1.3026   -5.2488    0.0000 C   0  0
    1.3002   -3.7488    0.0000 C   0  0
    3.8939    0.7546    0.0000 C   0  0
    5.1903    1.5091    0.0000 C   0  0
    5.1821    3.0099    0.0000 O   0  0
    3.8794    3.7535    0.0000 C   0  0
  1  2  1  0
  2  3  1  0
  3  4  2  0
  4  5  1  0
  5  6  2  0
  6  7  1  0
  7  8  1  0
  8  9  2  0
  9 10  1  0
 10 11  2  0
 11 12  1  0
 12 13  1  0
 12 14  2  0
 14 15  1  0
 15 16  1  0
 15 17  2  0
 17 10  1  0
 17 18  1  0
 18 19  2  0
 19  8  1  0
 19 20  1  0
 20 21  2  0
 21 22  1  0
 22 23  2  0
 23 24  1  0
 24 25  2  0
 25 20  1  0
  6 26  1  0
 26 27  2  0
 27  3  1  0
 27 28  1  0
 28 29  1  0
M  END
> <Smiles>
COc1ccc(Nc2nc3cc(N)cc(N)c3nc2-c2ccccc2)cc1OC

> <ID>
CHEMBL464503

> <standard_value>
25703.96

> <IC50_uM>
25.70396

> <Activity>
No

> <pIC50>
4.589999963

> <BCI>
0

$$$$

  SciTegic03012415362D

 30 32  0  0  0  0            999 V2000
    2.5951   -3.0031    0.0000 C   0  0
    2.5973   -1.5031    0.0000 O   0  0
    1.2990   -0.7500    0.0000 C   0  0
    1.2990    0.7500    0.0000 C   0  0
    0.0000    1.5000    0.0000 C   0  0
   -1.2990    0.7500    0.0000 C   0  0
   -2.6003    1.4977    0.0000 C   0  0
   -3.8990    0.7455    0.0000 C   0  0
   -5.2500    1.3674    0.0000 N   0  0
   -6.2544    0.2533    0.0000 C   0  0
   -7.7461    0.4110    0.0000 O   0  0
   -5.5052   -1.0462    0.0000 N   0  0
   -6.1126   -2.4159    0.0000 C   0  0
   -5.2295   -3.6293    0.0000 C   0  0
   -3.7379   -3.4708    0.0000 O   0  0
   -5.8379   -5.0013    0.0000 N   0  0
   -4.9548   -6.2147    0.0000 C   0  0
   -5.5609   -7.5869    0.0000 C   0  0
   -4.6757   -8.7979    0.0000 C   0  0
   -3.1844   -8.6368    0.0000 C   0  0
   -2.5782   -7.2648    0.0000 C   0  0
   -1.0861   -7.1036    0.0000 C   0  0
   -0.2002   -8.3141    0.0000 F   0  0
   -0.4803   -5.7314    0.0000 F   0  0
    0.4052   -6.9419    0.0000 F   0  0
   -3.4634   -6.0538    0.0000 C   0  0
   -4.0378   -0.7353    0.0000 C   0  0
   -2.9178   -1.7330    0.0000 O   0  0
   -1.2990   -0.7500    0.0000 C   0  0
    0.0000   -1.5000    0.0000 C   0  0
  1  2  1  0
  2  3  1  0
  3  4  2  0
  4  5  1  0
  5  6  2  0
  6  7  1  0
  7  8  2  0
  8  9  1  0
  9 10  1  0
 10 11  2  0
 10 12  1  0
 12 13  1  0
 13 14  1  0
 14 15  2  0
 14 16  1  0
 16 17  1  0
 17 18  2  0
 18 19  1  0
 19 20  2  0
 20 21  1  0
 21 22  1  0
 22 23  1  0
 22 24  1  0
 22 25  1  0
 21 26  2  0
 26 17  1  0
 12 27  1  0
 27  8  1  0
 27 28  2  0
  6 29  1  0
 29 30  2  0
 30  3  1  0
M  END
> <Smiles>
COc1ccc(/C=C2/NC(=O)N(CC(=O)Nc3cccc(C(F)(F)F)c3)C2=O)cc1

> <ID>
CHEMBL560144

> <standard_value>
25703.96

> <IC50_uM>
25.70396

> <Activity>
No

> <pIC50>
4.589999963

> <BCI>
0

$$$$

  SciTegic03012415362D

 17 18  0  0  0  0            999 V2000
    1.2948   -3.7516    0.0000 S   0  0
    2.5951   -3.0039    0.0000 C   0  0
    3.8933   -3.7570    0.0000 N   0  0
    3.8912   -5.2578    0.0000 N   0  0
    5.1894   -6.0109    0.0000 C   0  0
    5.1873   -7.5117    0.0000 C   0  0
    6.3978   -8.3758    0.0000 C   0  0
    5.9293   -9.8007    0.0000 C   0  0
    4.4293   -9.7955    0.0000 C   0  0
    3.9707   -8.3673    0.0000 S   0  0
    2.5973   -1.5031    0.0000 N   0  0
    1.2990   -0.7500    0.0000 C   0  0
    1.2990    0.7500    0.0000 C   0  0
    0.0000    1.5000    0.0000 C   0  0
   -1.2990    0.7500    0.0000 C   0  0
   -1.2990   -0.7500    0.0000 N   0  0
    0.0000   -1.5000    0.0000 C   0  0
  1  2  2  0
  2  3  1  0
  3  4  1  0
  4  5  2  0
  5  6  1  0
  6  7  2  0
  7  8  1  0
  8  9  2  0
  9 10  1  0
 10  6  1  0
  2 11  1  0
 11 12  1  0
 12 13  2  0
 13 14  1  0
 14 15  2  0
 15 16  1  0
 16 17  2  0
 17 12  1  0
M  END
> <Smiles>
S=C(N/N=C/c1cccs1)Nc1cccnc1

> <ID>
CHEMBL3735038

> <standard_value>
26000

> <IC50_uM>
26

> <Activity>
No

> <pIC50>
4.585026652

> <BCI>
0

$$$$

  SciTegic03012415362D

 25 26  0  0  0  0            999 V2000
    2.5981   -1.5000    0.0000 N   0  0
    1.2990   -0.7500    0.0000 C   0  0
    1.2990    0.7500    0.0000 C   0  0
    0.0000    1.5000    0.0000 C   0  0
   -1.2990    0.7500    0.0000 C   0  0
   -1.2990   -0.7500    0.0000 C   0  0
    0.0000   -1.5000    0.0000 C   0  0
   -0.0031   -3.0008    0.0000 N   0  0
   -1.3039   -3.7494    0.0000 C   0  0
   -2.6016   -2.9971    0.0000 O   0  0
   -1.3070   -5.2502    0.0000 C   0  0
   -2.6078   -5.9988    0.0000 C   0  0
   -2.6109   -7.4996    0.0000 C   0  0
   -3.9117   -8.2482    0.0000 N   0  0
   -3.9148   -9.7490    0.0000 C   0  0
   -5.2156  -10.4976    0.0000 C   0  0
   -6.5133   -9.7453    0.0000 O   0  0
   -5.2187  -11.9984    0.0000 N   0  0
   -6.5195  -12.7469    0.0000 C   0  0
   -7.8160  -11.9925    0.0000 C   0  0
   -9.1177  -12.7380    0.0000 C   0  0
   -9.1228  -14.2380    0.0000 C   0  0
   -7.8264  -14.9925    0.0000 C   0  0
   -6.5248  -14.2470    0.0000 C   0  0
   -5.2284  -15.0015    0.0000 Cl  0  0
  1  2  1  0
  2  3  2  0
  3  4  1  0
  4  5  2  0
  5  6  1  0
  6  7  2  0
  7  2  1  0
  7  8  1  0
  8  9  1  0
  9 10  2  0
  9 11  1  0
 11 12  1  0
 12 13  1  0
 13 14  1  0
 14 15  1  0
 15 16  1  0
 16 17  2  0
 16 18  1  0
 18 19  1  0
 19 20  2  0
 20 21  1  0
 21 22  2  0
 22 23  1  0
 23 24  2  0
 24 19  1  0
 24 25  1  0
M  END
> <Smiles>
Nc1ccccc1NC(=O)CCCNCC(=O)Nc1ccccc1Cl

> <ID>
CHEMBL2035377

> <standard_value>
28600

> <IC50_uM>
28.6

> <Activity>
No

> <pIC50>
4.543633967

> <BCI>
0

$$$$

  SciTegic03012415362D

 13 13  0  0  1  0            999 V2000
    2.5981   -1.5000    0.0000 C   0  0
    1.2990   -0.7500    0.0000 C   0  0
    1.2990    0.7500    0.0000 C   0  0
    0.0000    1.5000    0.0000 C   0  0
   -1.2990    0.7500    0.0000 C   0  0  2  0  0  0
   -2.5988    1.5004    0.0000 C   0  0
   -3.8976    0.7500    0.0000 C   0  0
   -3.8982    2.2498    0.0000 C   0  0
   -2.5998    3.0012    0.0000 N   0  0
   -3.8995    3.7516    0.0000 C   0  0
   -5.1986    4.5016    0.0000 S   0  0
   -1.2990   -0.7500    0.0000 C   0  0
    0.0000   -1.5000    0.0000 C   0  0
  1  2  1  0
  2  3  2  0
  3  4  1  0
  4  5  1  0
  5  6  1  1
  6  7  1  0
  6  8  1  0
  6  9  1  0
  9 10  2  0
 10 11  2  0
  5 12  1  0
 12 13  1  0
 13  2  1  0
M  END
> <Smiles>
CC1=CC[C@H](C(C)(C)N=C=S)CC1

> <ID>
CHEMBL3235013

> <standard_value>
29100

> <IC50_uM>
29.1

> <Activity>
No

> <pIC50>
4.536107011

> <BCI>
0

$$$$

  SciTegic03012415362D

 19 21  0  0  0  0            999 V2000
    2.5981   -1.5000    0.0000 O   0  0
    1.2990   -0.7500    0.0000 C   0  0
    1.2990    0.7500    0.0000 C   0  0
    0.0000    1.5000    0.0000 C   0  0
    0.0000    3.0008    0.0000 C   0  0
    1.2978    3.7529    0.0000 C   0  0
    1.2954    5.2529    0.0000 C   0  0
   -0.0048    6.0009    0.0000 C   0  0
   -0.0072    7.5009    0.0000 F   0  0
   -1.3026    5.2488    0.0000 C   0  0
   -1.3002    3.7488    0.0000 C   0  0
   -1.2990    0.7500    0.0000 N   0  0
   -1.2990   -0.7500    0.0000 C   0  0
   -2.5981   -1.5000    0.0000 N   0  0
   -2.5981   -3.0000    0.0000 C   0  0
   -1.2990   -3.7500    0.0000 C   0  0
   -1.2990   -5.2500    0.0000 Cl  0  0
    0.0000   -3.0000    0.0000 C   0  0
    0.0000   -1.5000    0.0000 C   0  0
  1  2  1  0
  2  3  2  0
  3  4  1  0
  4  5  1  0
  5  6  2  0
  6  7  1  0
  7  8  2  0
  8  9  1  0
  8 10  1  0
 10 11  2  0
 11  5  1  0
  4 12  2  0
 12 13  1  0
 13 14  2  0
 14 15  1  0
 15 16  2  0
 16 17  1  0
 16 18  1  0
 18 19  2  0
 19  2  1  0
 19 13  1  0
M  END
> <Smiles>
Oc1cc(-c2ccc(F)cc2)nc2ncc(Cl)cc12

> <ID>
CHEMBL51729

> <standard_value>
29512.09

> <IC50_uM>
29.51209

> <Activity>
No

> <pIC50>
4.530000033

> <BCI>
0

$$$$

  SciTegic03012415362D

 26 29  0  0  0  0            999 V2000
    6.4870   -5.2597    0.0000 C   0  0
    6.4915   -3.7597    0.0000 S   0  0
    5.1945   -3.0045    0.0000 C   0  0
    5.1969   -1.5045    0.0000 C   0  0
    3.8991   -0.7525    0.0000 C   0  0
    2.5987   -1.5004    0.0000 C   0  0
    1.2990   -0.7500    0.0000 C   0  0
    1.2990    0.7500    0.0000 C   0  0
    2.5987    1.5004    0.0000 C   0  0
    3.8991    0.7525    0.0000 C   0  0
    5.1969    1.5046    0.0000 C   0  0
    5.1945    3.0046    0.0000 C   0  0
    6.4923    3.7567    0.0000 O   0  0
    3.8943    3.7525    0.0000 C   0  0
    3.8919    5.2525    0.0000 O   0  0
    2.5964    3.0004    0.0000 C   0  0
    0.0000    1.5000    0.0000 C   0  0
    0.0000    3.0000    0.0000 O   0  0
   -1.2990    0.7500    0.0000 N   0  0
   -2.7248    1.2135    0.0000 C   0  0
   -3.6065    0.0000    0.0000 C   0  0
   -2.7248   -1.2135    0.0000 C   0  0
   -1.2990   -0.7500    0.0000 C   0  0  3  0  0  0
    0.0000   -1.5000    0.0000 C   0  0
    2.5965   -3.0004    0.0000 C   0  0
    3.8943   -3.7525    0.0000 C   0  0
  1  2  1  0
  2  3  1  0
  3  4  2  0
  4  5  1  0
  5  6  2  0
  6  7  1  0
  7  8  2  0
  8  9  1  0
  9 10  2  0
 10 11  1  0
 11 12  2  0
 12 13  1  0
 12 14  1  0
 14 15  1  0
 14 16  2  0
 16  9  1  0
  8 17  1  0
 17 18  2  0
 17 19  1  0
 19 20  1  0
 20 21  1  0
 21 22  1  0
 23 22  1  4
 23 19  1  0
 23 24  1  0
 24  7  1  0
  6 25  1  0
 25 26  2  0
 26  3  1  0
M  END
> <Smiles>
CSc1ccc(C2=C(c3ccc(O)c(O)c3)C(=O)N3CCCC3C2)cc1

> <ID>
CHEMBL43951

> <standard_value>
30000

> <IC50_uM>
30

> <Activity>
No

> <pIC50>
4.522878745

> <BCI>
0

$$$$

  SciTegic03012415362D

 39 43  0  0  1  0            999 V2000
    3.8964    0.7545    0.0000 C   0  0
    3.8990   -0.7455    0.0000 C   0  0
    5.1996   -1.4928    0.0000 O   0  0
    2.6003   -1.4977    0.0000 O   0  0
    1.2990   -0.7500    0.0000 C   0  0  1  0  0  0
    1.2990    0.7500    0.0000 C   0  0
    0.0000    1.5000    0.0000 C   0  0  1  0  0  0
    0.0031    3.0008    0.0000 O   0  0
    1.3039    3.7494    0.0000 C   0  0
    2.6016    2.9971    0.0000 C   0  0
    1.3070    5.2494    0.0000 O   0  0
   -1.2990    0.7500    0.0000 C   0  0
   -2.5800   -0.0305    0.0000 C   0  0
   -1.2638    2.2496    0.0000 C   0  0
   -1.2990   -0.7500    0.0000 C   0  0  3  0  0  0
   -2.5981   -1.5000    0.0000 C   0  0
   -2.5981   -3.0000    0.0000 C   0  0  1  0  0  0
   -3.8994   -3.7478    0.0000 O   0  0
   -5.1981   -2.9955    0.0000 C   0  0
   -5.1954   -1.4955    0.0000 C   0  0
   -6.4986   -3.7428    0.0000 O   0  0
   -1.2990   -3.7500    0.0000 C   0  0  1  0  0  0
   -2.5981   -4.5000    0.0000 C   0  0
   -1.2990   -5.2500    0.0000 C   0  0
   -2.3946   -6.2666    0.0000 C   0  0
   -1.7758   -7.6330    0.0000 C   0  0
   -0.2850   -7.4666    0.0000 C   0  0  1  0  0  0
    0.7324   -8.5698    0.0000 C   0  0
    2.2130   -8.5007    0.0000 C   0  0
    2.7252   -9.9105    0.0000 C   0  0
    1.5427  -10.8333    0.0000 O   0  0
    0.2996   -9.9938    0.0000 C   0  0
    0.0000   -6.0000    0.0000 C   0  0  1  0  0  0
    1.2212   -6.8710    0.0000 C   0  0
    1.2991   -5.2500    0.0000 C   0  0
    1.2991   -3.7500    0.0000 C   0  0
    0.0000   -3.0000    0.0000 C   0  0  3  0  0  0
    0.0000   -1.5000    0.0000 C   0  0  1  0  0  0
    1.2990   -2.2500    0.0000 C   0  0
  1  2  1  0
  2  3  2  0
  2  4  1  0
  5  4  1  6
  5  6  1  0
  6  7  1  0
  7  8  1  6
  8  9  1  0
  9 10  1  0
  9 11  2  0
  7 12  1  0
 12 13  1  0
 12 14  1  0
 12 15  1  0
 15 16  1  4
 16 17  1  0
 17 18  1  6
 18 19  1  0
 19 20  1  0
 19 21  2  0
 17 22  1  0
 22 23  1  1
 22 24  1  0
 24 25  2  0
 25 26  1  0
 26 27  1  0
 27 28  1  6
 28 29  1  0
 29 30  2  0
 30 31  1  0
 31 32  1  0
 32 28  2  0
 27 33  1  0
 33 24  1  0
 33 34  1  6
 33 35  1  0
 35 36  1  0
 37 36  1  4
 37 22  1  0
 37 38  1  0
 38 15  1  0
 38  5  1  0
 38 39  1  1
M  END
> <Smiles>
CC(=O)O[C@H]1C[C@@H](OC(C)=O)C(C)(C)C2C[C@@H](OC(C)=O)[C@@]3(C)C4=CC[C@@H](c5ccoc5)[C@]4(C)CCC3[C@]21C

> <ID>
CHEMBL422263

> <standard_value>
30000

> <IC50_uM>
30

> <Activity>
No

> <pIC50>
4.522878745

> <BCI>
0

$$$$

  SciTegic03012415362D

 35 38  0  0  0  0            999 V2000
    6.4773    3.7652    0.0000 O   0  0
    7.7802    3.0220    0.0000 S   0  0
    7.7722    4.5219    0.0000 O   0  0
    9.0758    3.7795    0.0000 C   0  0
    9.0685    5.2803    0.0000 C   0  0
   10.3641    6.0379    0.0000 C   0  0
   11.6658    5.2925    0.0000 C   0  0
   12.9622    6.0470    0.0000 C   0  0
   12.9570    7.5470    0.0000 C   0  0
   14.2541    8.3019    0.0000 C   0  0
   15.5563    7.5573    0.0000 F   0  0
   14.2484    9.8019    0.0000 F   0  0
   15.5502    9.0571    0.0000 F   0  0
   11.6554    8.2925    0.0000 C   0  0
   10.3589    7.5379    0.0000 C   0  0
    9.0573    8.2834    0.0000 F   0  0
    7.7876    1.5211    0.0000 C   0  0
    6.4920    0.7636    0.0000 C   0  0
    6.4972   -0.7364    0.0000 C   0  0
    5.2007   -1.4909    0.0000 C   0  0
    3.8990   -0.7455    0.0000 C   0  0
    2.6003   -1.4977    0.0000 N   0  0
    1.2990   -0.7500    0.0000 C   0  0
    1.2990    0.7500    0.0000 N   0  0
    0.0000    1.5000    0.0000 C   0  0
   -1.2990    0.7500    0.0000 N   0  0
   -1.2990   -0.7500    0.0000 C   0  0
   -2.5981   -1.5000    0.0000 C   0  0
   -2.5981   -3.0000    0.0000 C   0  0
   -1.2990   -3.7500    0.0000 C   0  0
   -1.2990   -5.2500    0.0000 Br  0  0
    0.0000   -3.0000    0.0000 C   0  0
    0.0000   -1.5000    0.0000 C   0  0
    3.8939    0.7546    0.0000 C   0  0
    5.1903    1.5091    0.0000 C   0  0
  1  2  2  0
  2  3  2  0
  2  4  1  0
  4  5  2  0
  5  6  1  0
  6  7  2  0
  7  8  1  0
  8  9  2  0
  9 10  1  0
 10 11  1  0
 10 12  1  0
 10 13  1  0
  9 14  1  0
 14 15  2  0
 15  6  1  0
 15 16  1  0
  2 17  1  0
 17 18  1  0
 18 19  2  0
 19 20  1  0
 20 21  2  0
 21 22  1  0
 22 23  1  0
 23 24  2  0
 24 25  1  0
 25 26  2  0
 26 27  1  0
 27 28  2  0
 28 29  1  0
 29 30  2  0
 30 31  1  0
 30 32  1  0
 32 33  2  0
 33 23  1  0
 33 27  1  0
 21 34  1  0
 34 35  2  0
 35 18  1  0
M  END
> <Smiles>
O=S(=O)(/C=C/c1ccc(C(F)(F)F)cc1F)Cc1ccc(Nc2ncnc3ccc(Br)cc23)cc1

> <ID>
CHEMBL159892

> <standard_value>
30000

> <IC50_uM>
30

> <Activity>
No

> <pIC50>
4.522878745

> <BCI>
0

$$$$

  SciTegic03012415362D

 31 34  0  0  0  0            999 V2000
    6.4773    3.7652    0.0000 O   0  0
    7.7802    3.0220    0.0000 S   0  0
    7.7722    4.5219    0.0000 O   0  0
    9.0758    3.7795    0.0000 C   0  0
    9.0685    5.2803    0.0000 C   0  0
   10.3641    6.0379    0.0000 C   0  0
   10.3590    7.5379    0.0000 C   0  0
   11.6554    8.2925    0.0000 C   0  0
   12.9570    7.5470    0.0000 C   0  0
   14.2534    8.3015    0.0000 Cl  0  0
   12.9622    6.0470    0.0000 C   0  0
   11.6658    5.2925    0.0000 C   0  0
    7.7876    1.5211    0.0000 C   0  0
    6.4920    0.7636    0.0000 C   0  0
    6.4972   -0.7364    0.0000 C   0  0
    5.2007   -1.4909    0.0000 C   0  0
    3.8990   -0.7455    0.0000 C   0  0
    2.6003   -1.4977    0.0000 N   0  0
    1.2990   -0.7500    0.0000 C   0  0
    1.2990    0.7500    0.0000 N   0  0
    0.0000    1.5000    0.0000 C   0  0
   -1.2990    0.7500    0.0000 N   0  0
   -1.2990   -0.7500    0.0000 C   0  0
   -2.5981   -1.5000    0.0000 C   0  0
   -2.5981   -3.0000    0.0000 C   0  0
   -1.2990   -3.7500    0.0000 C   0  0
   -1.2990   -5.2500    0.0000 Br  0  0
    0.0000   -3.0000    0.0000 C   0  0
    0.0000   -1.5000    0.0000 C   0  0
    3.8939    0.7546    0.0000 C   0  0
    5.1903    1.5091    0.0000 C   0  0
  1  2  2  0
  2  3  2  0
  2  4  1  0
  4  5  2  0
  5  6  1  0
  6  7  2  0
  7  8  1  0
  8  9  2  0
  9 10  1  0
  9 11  1  0
 11 12  2  0
 12  6  1  0
  2 13  1  0
 13 14  1  0
 14 15  2  0
 15 16  1  0
 16 17  2  0
 17 18  1  0
 18 19  1  0
 19 20  2  0
 20 21  1  0
 21 22  2  0
 22 23  1  0
 23 24  2  0
 24 25  1  0
 25 26  2  0
 26 27  1  0
 26 28  1  0
 28 29  2  0
 29 19  1  0
 29 23  1  0
 17 30  1  0
 30 31  2  0
 31 14  1  0
M  END
> <Smiles>
O=S(=O)(/C=C/c1ccc(Cl)cc1)Cc1ccc(Nc2ncnc3ccc(Br)cc23)cc1

> <ID>
CHEMBL161634

> <standard_value>
30000

> <IC50_uM>
30

> <Activity>
No

> <pIC50>
4.522878745

> <BCI>
0

$$$$

  SciTegic03012415362D

 28 30  0  0  0  0            999 V2000
    2.5951   -3.0031    0.0000 C   0  0
    2.5973   -1.5031    0.0000 O   0  0
    1.2990   -0.7500    0.0000 C   0  0
    1.2990    0.7500    0.0000 C   0  0
    0.0000    1.5000    0.0000 C   0  0
   -1.2990    0.7500    0.0000 C   0  0
   -2.6003    1.4977    0.0000 C   0  0
   -3.8990    0.7455    0.0000 C   0  0
   -4.0317   -0.7359    0.0000 N   0  0
   -5.4979   -1.0529    0.0000 C   0  0
   -6.1032   -2.4253    0.0000 O   0  0
   -6.2524    0.2436    0.0000 N   0  0
   -7.7426    0.3981    0.0000 C   0  0
   -8.3559    1.7679    0.0000 C   0  0
   -7.4763    2.9830    0.0000 O   0  0
   -9.8487    1.9227    0.0000 N   0  0
  -10.4619    3.2925    0.0000 C   0  0
  -11.9537    3.4494    0.0000 C   0  0
  -12.5638    4.8197    0.0000 C   0  0
  -11.6821    6.0333    0.0000 C   0  0
  -12.2898    7.4056    0.0000 O   0  0
  -11.4064    8.6179    0.0000 C   0  0
  -10.1904    5.8765    0.0000 C   0  0
   -9.5803    4.5062    0.0000 C   0  0
   -5.2526    1.3618    0.0000 C   0  0
   -5.5608    2.8298    0.0000 O   0  0
   -1.2990   -0.7500    0.0000 C   0  0
    0.0000   -1.5000    0.0000 C   0  0
  1  2  1  0
  2  3  1  0
  3  4  2  0
  4  5  1  0
  5  6  2  0
  6  7  1  0
  7  8  2  0
  8  9  1  0
  9 10  1  0
 10 11  2  0
 10 12  1  0
 12 13  1  0
 13 14  1  0
 14 15  2  0
 14 16  1  0
 16 17  1  0
 17 18  2  0
 18 19  1  0
 19 20  2  0
 20 21  1  0
 21 22  1  0
 20 23  1  0
 23 24  2  0
 24 17  1  0
 12 25  1  0
 25  8  1  0
 25 26  2  0
  6 27  1  0
 27 28  2  0
 28  3  1  0
M  END
> <Smiles>
COc1ccc(/C=C2\NC(=O)N(CC(=O)Nc3ccc(OC)cc3)C2=O)cc1

> <ID>
CHEMBL561807

> <standard_value>
30902.95

> <IC50_uM>
30.90295

> <Activity>
No

> <pIC50>
4.510000061

> <BCI>
0

$$$$

  SciTegic03012415362D

 18 22  0  0  1  0            999 V2000
    3.8805   -1.4410    0.0000 N   0  0
    2.4133   -1.7530    0.0000 C   0  0  1  0  0  0
    1.2990   -0.7500    0.0000 C   0  0
    1.2990    0.7500    0.0000 C   0  0
    0.0000    1.5000    0.0000 C   0  0
   -1.2990    0.7500    0.0000 C   0  0
   -1.2990   -0.7500    0.0000 C   0  0
    0.0000   -1.5000    0.0000 C   0  0
    0.3114   -2.9665    0.0000 C   0  0  3  0  0  0
   -1.1186   -3.5538    0.0000 C   0  0
   -1.3921   -5.0287    0.0000 C   0  0  3  0  0  0
   -0.2515   -6.0029    0.0000 C   0  0
    1.1625   -5.5023    0.0000 C   0  0  3  0  0  0
    2.0417   -5.7047    0.0000 C   0  0
    1.5377   -4.9645    0.0000 C   0  0  3  0  0  0
    0.2461   -5.7273    0.0000 C   0  0
    1.8032   -3.1233    0.0000 C   0  0  2  0  0  0
    1.4359   -4.0274    0.0000 C   0  0
  2  1  1  6
  2  3  1  0
  3  4  2  0
  4  5  1  0
  5  6  2  0
  6  7  1  0
  7  8  2  0
  8  3  1  0
  8  9  1  0
  9 10  1  4
 11 10  1  4
 11 12  1  0
 13 12  1  4
 13 14  1  0
 15 14  1  4
 15 16  1  0
 16 11  1  0
 17 15  1  1
 17  2  1  0
 17  9  1  0
 13 18  1  0
 18  9  1  0
M  END
> <Smiles>
Cl.N[C@H]1c2ccccc2C23CC4CC(CC(C4)[C@H]12)C3

> <ID>
CHEMBL2430841

> <standard_value>
31150

> <IC50_uM>
31.15

> <Activity>
No

> <pIC50>
4.506541949

> <BCI>
0

> <RemovedSalts>
HCl

$$$$

  SciTegic03012415362D

 44 51  0  0  0  0            999 V2000
   10.8198   -5.3350    0.0000 O   0  0
    9.5437   -6.1233    0.0000 S   0  0
   10.8645   -6.8341    0.0000 O   0  0
    9.5887   -7.6234    0.0000 N   0  0
   10.9100   -8.3353    0.0000 C   0  0
   12.2412   -7.6720    0.0000 S   0  0
   13.2794   -8.7547    0.0000 C   0  0
   12.5707  -10.0766    0.0000 C   0  0
   13.2239  -11.4278    0.0000 C   0  0
   14.7026  -11.6482    0.0000 C   0  0
   15.2520  -13.0440    0.0000 C   0  0
   14.3180  -14.2177    0.0000 C   0  0
   12.8345  -13.9956    0.0000 C   0  0
   12.2851  -12.5998    0.0000 C   0  0
   11.0944   -9.8111    0.0000 N   0  0
   10.0051  -10.8434    0.0000 C   0  0
    8.5431  -10.5321    0.0000 C   0  0
    7.5397  -11.6471    0.0000 C   0  0
    8.0036  -13.0736    0.0000 C   0  0
    9.4709  -13.3850    0.0000 C   0  0
   10.4743  -12.2700    0.0000 C   0  0
    8.2224   -5.4114    0.0000 C   0  0
    8.1783   -3.9120    0.0000 C   0  0
    6.8578   -3.2005    0.0000 C   0  0
    5.5861   -3.9865    0.0000 C   0  0
    4.2151   -3.3761    0.0000 N   0  0
    3.9032   -1.9089    0.0000 N   0  0
    2.4133   -1.7530    0.0000 C   0  0
    1.2990   -0.7500    0.0000 C   0  0
    1.2990    0.7500    0.0000 C   0  0
    0.0000    1.5000    0.0000 C   0  0
   -1.2990    0.7500    0.0000 C   0  0
   -1.2990   -0.7500    0.0000 C   0  0
    0.0000   -1.5000    0.0000 C   0  0
    0.3114   -2.9665    0.0000 C   0  0
    1.8032   -3.1233    0.0000 C   0  0  3  0  0  0
    2.9160   -4.1261    0.0000 C   0  0  3  0  0  0
    2.7588   -5.6186    0.0000 C   0  0
    1.5265   -6.4428    0.0000 C   0  0
    1.9521   -7.8811    0.0000 C   0  0
    3.4516   -7.9208    0.0000 C   0  0
    3.9527   -6.5070    0.0000 S   0  0
    5.6255   -5.4877    0.0000 C   0  0
    6.9460   -6.1992    0.0000 C   0  0
  1  2  2  0
  2  3  2  0
  2  4  1  0
  4  5  2  0
  5  6  1  0
  6  7  1  0
  7  8  2  0
  8  9  1  0
  9 10  2  0
 10 11  1  0
 11 12  2  0
 12 13  1  0
 13 14  2  0
 14  9  1  0
  8 15  1  0
 15  5  1  0
 15 16  1  0
 16 17  2  0
 17 18  1  0
 18 19  2  0
 19 20  1  0
 20 21  2  0
 21 16  1  0
  2 22  1  0
 22 23  2  0
 23 24  1  0
 24 25  2  0
 25 26  1  0
 26 27  1  0
 27 28  2  0
 28 29  1  0
 29 30  2  0
 30 31  1  0
 31 32  2  0
 32 33  1  0
 33 34  2  0
 34 29  1  0
 34 35  1  0
 36 35  1  4
 36 28  1  0
 36 37  1  0
 37 26  1  0
 37 38  1  4
 38 39  2  0
 39 40  1  0
 40 41  2  0
 41 42  1  0
 42 38  1  0
 25 43  1  0
 43 44  2  0
 44 22  1  0
M  END
> <Smiles>
O=S(=O)(/N=c1\scc(-c2ccccc2)n1-c1ccccc1)c1ccc(N2N=C3c4ccccc4CC3C2c2cccs2)cc1

> <ID>
CHEMBL2263485

> <standard_value>
31200

> <IC50_uM>
31.2

> <Activity>
No

> <pIC50>
4.505845406

> <BCI>
0

$$$$

  SciTegic03012415362D

 32 35  0  0  0  0            999 V2000
    6.4773    3.7652    0.0000 O   0  0
    7.7802    3.0220    0.0000 S   0  0
    7.7722    4.5219    0.0000 O   0  0
    9.0758    3.7795    0.0000 C   0  0
    9.0685    5.2803    0.0000 C   0  0
   10.3641    6.0379    0.0000 C   0  0
   11.6658    5.2925    0.0000 C   0  0
   12.9622    6.0470    0.0000 C   0  0
   12.9570    7.5470    0.0000 C   0  0
   14.2534    8.3015    0.0000 F   0  0
   11.6554    8.2925    0.0000 C   0  0
   10.3589    7.5379    0.0000 C   0  0
    9.0573    8.2834    0.0000 F   0  0
    7.7876    1.5211    0.0000 C   0  0
    6.4920    0.7636    0.0000 C   0  0
    6.4972   -0.7364    0.0000 C   0  0
    5.2007   -1.4909    0.0000 C   0  0
    3.8990   -0.7455    0.0000 C   0  0
    2.6003   -1.4977    0.0000 N   0  0
    1.2990   -0.7500    0.0000 C   0  0
    1.2990    0.7500    0.0000 N   0  0
    0.0000    1.5000    0.0000 C   0  0
   -1.2990    0.7500    0.0000 N   0  0
   -1.2990   -0.7500    0.0000 C   0  0
   -2.5981   -1.5000    0.0000 C   0  0
   -2.5981   -3.0000    0.0000 C   0  0
   -1.2990   -3.7500    0.0000 C   0  0
   -1.2990   -5.2500    0.0000 Br  0  0
    0.0000   -3.0000    0.0000 C   0  0
    0.0000   -1.5000    0.0000 C   0  0
    3.8939    0.7546    0.0000 C   0  0
    5.1903    1.5091    0.0000 C   0  0
  1  2  2  0
  2  3  2  0
  2  4  1  0
  4  5  2  0
  5  6  1  0
  6  7  2  0
  7  8  1  0
  8  9  2  0
  9 10  1  0
  9 11  1  0
 11 12  2  0
 12  6  1  0
 12 13  1  0
  2 14  1  0
 14 15  1  0
 15 16  2  0
 16 17  1  0
 17 18  2  0
 18 19  1  0
 19 20  1  0
 20 21  2  0
 21 22  1  0
 22 23  2  0
 23 24  1  0
 24 25  2  0
 25 26  1  0
 26 27  2  0
 27 28  1  0
 27 29  1  0
 29 30  2  0
 30 20  1  0
 30 24  1  0
 18 31  1  0
 31 32  2  0
 32 15  1  0
M  END
> <Smiles>
O=S(=O)(/C=C/c1ccc(F)cc1F)Cc1ccc(Nc2ncnc3ccc(Br)cc23)cc1

> <ID>
CHEMBL164301

> <standard_value>
32000

> <IC50_uM>
32

> <Activity>
No

> <pIC50>
4.494850022

> <BCI>
0

$$$$

  SciTegic03012415362D

 27 28  0  0  0  0            999 V2000
    2.5981   -1.5000    0.0000 N   0  0
    1.2990   -0.7500    0.0000 C   0  0
    1.2990    0.7500    0.0000 C   0  0
    0.0000    1.5000    0.0000 C   0  0
   -1.2990    0.7500    0.0000 C   0  0
   -1.2990   -0.7500    0.0000 C   0  0
    0.0000   -1.5000    0.0000 C   0  0
   -0.0031   -3.0008    0.0000 N   0  0
   -1.3039   -3.7494    0.0000 C   0  0
   -2.6016   -2.9971    0.0000 O   0  0
   -1.3070   -5.2502    0.0000 C   0  0
   -2.6078   -5.9988    0.0000 C   0  0
   -2.6109   -7.4996    0.0000 C   0  0
   -3.9117   -8.2482    0.0000 N   0  0
   -3.9148   -9.7490    0.0000 C   0  0
   -5.2156  -10.4976    0.0000 C   0  0
   -6.5133   -9.7453    0.0000 O   0  0
   -5.2187  -11.9984    0.0000 N   0  0
   -6.5195  -12.7469    0.0000 C   0  0
   -7.8160  -11.9925    0.0000 C   0  0
   -9.1177  -12.7380    0.0000 C   0  0
   -9.1228  -14.2380    0.0000 C   0  0
   -7.8264  -14.9925    0.0000 C   0  0
   -6.5248  -14.2470    0.0000 C   0  0
   -5.2292  -15.0046    0.0000 N   0  3
   -5.2366  -16.5046    0.0000 O   0  0
   -3.9263  -14.2614    0.0000 O   0  5
  1  2  1  0
  2  3  2  0
  3  4  1  0
  4  5  2  0
  5  6  1  0
  6  7  2  0
  7  2  1  0
  7  8  1  0
  8  9  1  0
  9 10  2  0
  9 11  1  0
 11 12  1  0
 12 13  1  0
 13 14  1  0
 14 15  1  0
 15 16  1  0
 16 17  2  0
 16 18  1  0
 18 19  1  0
 19 20  2  0
 20 21  1  0
 21 22  2  0
 22 23  1  0
 23 24  2  0
 24 19  1  0
 24 25  1  0
 25 26  2  0
 25 27  1  0
M  CHG  2  25   1  27  -1
M  END
> <Smiles>
Nc1ccccc1NC(=O)CCCNCC(=O)Nc1ccccc1[N+](=O)[O-]

> <ID>
CHEMBL2035380

> <standard_value>
32000

> <IC50_uM>
32

> <Activity>
No

> <pIC50>
4.494850022

> <BCI>
0

$$$$

  SciTegic03012415362D

 67 74  0  0  1  0            999 V2000
    2.5800    0.0305    0.0000 C   0  0
    1.2990   -0.7500    0.0000 C   0  0
    1.2638   -2.2496    0.0000 C   0  0
    1.2990    0.7500    0.0000 C   0  0
    0.0000    1.5000    0.0000 C   0  0
   -1.2990    0.7500    0.0000 C   0  0  2  0  0  0
   -1.2990    2.2508    0.0000 C   0  0
   -0.0005    3.0016    0.0000 O   0  0
   -2.5983    3.0004    0.0000 O   0  0
   -2.5981    1.5000    0.0000 C   0  0
   -3.8971    0.7500    0.0000 C   0  0
   -3.8971   -0.7500    0.0000 C   0  0  2  0  0  0
   -5.1962    0.0000    0.0000 C   0  0
   -2.5981   -1.5000    0.0000 C   0  0
   -2.5981   -3.0000    0.0000 C   0  0
   -3.8971   -3.7500    0.0000 C   0  0
   -5.1961   -3.0000    0.0000 C   0  0  2  0  0  0
   -6.4952   -3.7500    0.0000 C   0  0  1  0  0  0
   -5.1961   -4.5000    0.0000 C   0  0
   -6.4952   -5.2500    0.0000 C   0  0
   -7.7942   -6.0000    0.0000 C   0  0
   -9.0933   -5.2500    0.0000 C   0  0  2  0  0  0
  -10.3915   -6.0031    0.0000 O   0  0
  -10.3893   -7.5040    0.0000 C   0  0  2  0  0  0
   -9.0877   -8.2496    0.0000 O   0  0
   -9.0825   -9.7495    0.0000 C   0  0  2  0  0  0
   -7.7786  -10.4928    0.0000 C   0  0
   -6.4833   -9.7365    0.0000 O   0  0
   -7.7708  -11.9928    0.0000 O   0  0
  -10.3789  -10.5040    0.0000 C   0  0  1  0  0  0
  -10.3738  -12.0040    0.0000 O   0  0
  -11.6806   -9.7585    0.0000 C   0  0  2  0  0  0
  -12.9762  -10.5161    0.0000 O   0  0
  -12.9688  -12.0169    0.0000 C   0  0  2  0  0  0
  -11.6646  -12.7580    0.0000 O   0  0
  -11.6543  -14.2580    0.0000 C   0  0  2  0  0  0
  -10.3478  -14.9967    0.0000 C   0  0
   -9.0551  -14.2359    0.0000 O   0  0
  -12.9481  -15.0169    0.0000 C   0  0  2  0  0  0
  -12.9377  -16.5169    0.0000 O   0  0
  -14.2523  -14.2759    0.0000 C   0  0  2  0  0  0
  -15.5461  -15.0349    0.0000 O   0  0
  -14.2626  -12.7760    0.0000 C   0  0  1  0  0  0
  -15.5669  -12.0350    0.0000 O   0  0
  -11.6857   -8.2585    0.0000 C   0  0  1  0  0  0
  -12.9896   -7.5153    0.0000 O   0  0
  -12.9989   -6.0145    0.0000 C   0  0  2  0  0  0
  -11.7030   -5.2591    0.0000 O   0  0
  -11.7092   -3.7591    0.0000 C   0  0  2  0  0  0
  -10.4110   -3.0059    0.0000 C   0  0
  -10.4132   -1.5059    0.0000 O   0  0
  -13.0114   -3.0145    0.0000 C   0  0  1  0  0  0
  -13.0176   -1.5145    0.0000 O   0  0
  -14.3073   -3.7699    0.0000 C   0  0  2  0  0  0
  -15.6094   -3.0253    0.0000 O   0  0
  -14.3010   -5.2698    0.0000 C   0  0  1  0  0  0
  -15.5970   -6.0252    0.0000 O   0  0
   -9.0933   -3.7500    0.0000 C   0  0
   -9.0579   -2.2505    0.0000 C   0  0
  -10.3743   -4.5303    0.0000 C   0  0
   -7.7942   -3.0000    0.0000 C   0  0  2  0  0  0
   -7.7942   -1.5000    0.0000 C   0  0
   -6.4952   -0.7500    0.0000 C   0  0
   -5.1961   -1.5000    0.0000 C   0  0  1  0  0  0
   -6.4952   -2.2500    0.0000 C   0  0
   -1.2990   -0.7500    0.0000 C   0  0  2  0  0  0
    0.0000   -1.5000    0.0000 C   0  0
  1  2  1  0
  2  3  1  0
  2  4  1  0
  4  5  1  0
  5  6  1  0
  6  7  1  6
  7  8  2  0
  7  9  1  0
  6 10  1  0
 10 11  1  0
 11 12  1  0
 12 13  1  1
 12 14  1  0
 14 15  2  0
 15 16  1  0
 17 16  1  6
 17 18  1  0
 18 19  1  6
 18 20  1  0
 20 21  1  0
 21 22  1  0
 22 23  1  6
 24 23  1  6
 24 25  1  0
 25 26  1  0
 26 27  1  6
 27 28  2  0
 27 29  1  0
 26 30  1  0
 30 31  1  1
 30 32  1  0
 32 33  1  6
 34 33  1  6
 34 35  1  0
 35 36  1  0
 36 37  1  6
 37 38  1  0
 36 39  1  0
 39 40  1  6
 39 41  1  0
 41 42  1  6
 41 43  1  0
 43 34  1  0
 43 44  1  1
 32 45  1  0
 45 24  1  0
 45 46  1  1
 47 46  1  1
 47 48  1  0
 48 49  1  0
 49 50  1  1
 50 51  1  0
 49 52  1  0
 52 53  1  6
 52 54  1  0
 54 55  1  1
 54 56  1  0
 56 47  1  0
 56 57  1  6
 22 58  1  0
 58 59  1  0
 58 60  1  0
 58 61  1  0
 61 18  1  0
 61 62  1  6
 62 63  1  0
 63 64  1  0
 64 17  1  0
 64 12  1  0
 64 65  1  6
 14 66  1  0
 66  6  1  0
 66 67  1  1
 67  2  1  0
M  END
> <Smiles>
CC1(C)CC[C@]2(C(=O)O)CC[C@]3(C)C(=CC[C@@H]4[C@@]5(C)CC[C@H](O[C@@H]6O[C@H](C(=O)O)[C@@H](O)[C@H](O[C@@H]7O[C@H](CO)[C@H](O)[C@H](O)[C@H]7O)[C@H]6O[C@@H]6O[C@H](CO)[C@@H](O)[C@H](O)[C@H]6O)C(C)(C)[C@@H
]5CC[C@]43C)[C@@H]2C1

> <ID>
CHEMBL500221

> <standard_value>
32300

> <IC50_uM>
32.3

> <Activity>
No

> <pIC50>
4.490797478

> <BCI>
0

$$$$

  SciTegic03012415362D

 24 25  0  0  1  0            999 V2000
   11.6982   -0.7323    0.0000 C   0  0
   10.4003   -1.4841    0.0000 C   0  0
   10.4029   -2.9841    0.0000 C   0  0
    9.0990   -0.7364    0.0000 C   0  0
    7.8003   -1.4887    0.0000 C   0  0  2  0  0  0
    6.4990   -0.7409    0.0000 N   0  0
    5.2003   -1.4932    0.0000 C   0  0
    5.2029   -2.9932    0.0000 O   0  0
    3.8990   -0.7455    0.0000 C   0  0
    2.6003   -1.4977    0.0000 C   0  0
    1.2990   -0.7500    0.0000 N   0  0
    1.2990    0.7500    0.0000 C   0  0
    0.0000    1.5000    0.0000 C   0  0
   -1.2990    0.7500    0.0000 C   0  0
   -2.5981    1.5000    0.0000 N   0  0
   -3.8971    0.7500    0.0000 C   0  0
   -3.8971   -0.7500    0.0000 C   0  0
   -2.5981   -1.5000    0.0000 C   0  0
   -1.2990   -0.7500    0.0000 C   0  0
    0.0000   -1.5000    0.0000 C   0  0
    0.0000   -3.0000    0.0000 O   0  0
    7.7998   -2.9895    0.0000 B   0  0
    6.5010   -3.7399    0.0000 O   0  0
    9.0989   -3.7395    0.0000 O   0  0
  1  2  1  0
  2  3  1  0
  2  4  1  0
  5  4  1  1
  5  6  1  0
  6  7  1  0
  7  8  2  0
  7  9  1  0
  9 10  1  0
 10 11  1  0
 11 12  1  0
 12 13  2  0
 13 14  1  0
 14 15  2  0
 15 16  1  0
 16 17  2  0
 17 18  1  0
 18 19  2  0
 19 14  1  0
 19 20  1  0
 20 11  1  0
 20 21  2  0
  5 22  1  0
 22 23  1  0
 22 24  1  0
M  END
> <Smiles>
CC(C)C[C@H](NC(=O)CCn1ccc2ncccc2c1=O)B(O)O

> <ID>
CHEMBL3287937

> <standard_value>
33000

> <IC50_uM>
33

> <Activity>
No

> <pIC50>
4.48148606

> <BCI>
0

$$$$

  SciTegic03012415362D

 18 22  0  0  1  0            999 V2000
    3.8805   -1.4410    0.0000 N   0  0
    2.4133   -1.7530    0.0000 C   0  0  2  0  0  0
    1.2990   -0.7500    0.0000 C   0  0
    1.2990    0.7500    0.0000 C   0  0
    0.0000    1.5000    0.0000 C   0  0
   -1.2990    0.7500    0.0000 C   0  0
   -1.2990   -0.7500    0.0000 C   0  0
    0.0000   -1.5000    0.0000 C   0  0
    0.3114   -2.9665    0.0000 C   0  0  3  0  0  0
   -1.1186   -3.5538    0.0000 C   0  0
   -1.3921   -5.0287    0.0000 C   0  0  3  0  0  0
   -0.2515   -6.0029    0.0000 C   0  0
    1.1625   -5.5023    0.0000 C   0  0  3  0  0  0
    2.0417   -5.7047    0.0000 C   0  0
    1.5377   -4.9645    0.0000 C   0  0  3  0  0  0
    0.2461   -5.7273    0.0000 C   0  0
    1.8032   -3.1233    0.0000 C   0  0  2  0  0  0
    1.4359   -4.0274    0.0000 C   0  0
  2  1  1  1
  2  3  1  0
  3  4  2  0
  4  5  1  0
  5  6  2  0
  6  7  1  0
  7  8  2  0
  8  3  1  0
  8  9  1  0
  9 10  1  4
 11 10  1  4
 11 12  1  0
 13 12  1  4
 13 14  1  0
 15 14  1  4
 15 16  1  0
 16 11  1  0
 17 15  1  1
 17  2  1  0
 17  9  1  0
 13 18  1  0
 18  9  1  0
M  END
> <Smiles>
Cl.N[C@@H]1c2ccccc2C23CC4CC(CC(C4)[C@H]12)C3

> <ID>
CHEMBL2430842

> <standard_value>
33050

> <IC50_uM>
33.05

> <Activity>
No

> <pIC50>
4.480828536

> <BCI>
0

> <RemovedSalts>
HCl

$$$$

  SciTegic03012415362D

 26 27  0  0  0  0            999 V2000
    2.5951   -3.0031    0.0000 C   0  0
    2.5973   -1.5031    0.0000 O   0  0
    1.2990   -0.7500    0.0000 C   0  0
    1.2990    0.7500    0.0000 C   0  0
    0.0000    1.5000    0.0000 C   0  0
   -1.2990    0.7500    0.0000 C   0  0
   -2.6003    1.4977    0.0000 N   0  0
   -3.8990    0.7455    0.0000 C   0  0
   -3.8964   -0.7545    0.0000 O   0  0
   -5.2003    1.4932    0.0000 C   0  0
   -6.4990    0.7409    0.0000 N   0  0
   -7.8003    1.4887    0.0000 C   0  0
   -9.0990    0.7364    0.0000 C   0  0
  -10.4003    1.4841    0.0000 C   0  0
  -11.6990    0.7318    0.0000 C   0  0
  -11.6963   -0.7681    0.0000 O   0  0
  -13.0003    1.4796    0.0000 N   0  0
  -14.2989    0.7273    0.0000 C   0  0
  -14.2938   -0.7728    0.0000 C   0  0
  -15.5902   -1.5272    0.0000 C   0  0
  -16.8919   -0.7817    0.0000 C   0  0
  -16.8971    0.7183    0.0000 C   0  0
  -15.6006    1.4727    0.0000 C   0  0
  -15.6059    2.9727    0.0000 N   0  0
   -1.2990   -0.7500    0.0000 C   0  0
    0.0000   -1.5000    0.0000 C   0  0
  1  2  1  0
  2  3  1  0
  3  4  2  0
  4  5  1  0
  5  6  2  0
  6  7  1  0
  7  8  1  0
  8  9  2  0
  8 10  1  0
 10 11  1  0
 11 12  1  0
 12 13  1  0
 13 14  1  0
 14 15  1  0
 15 16  2  0
 15 17  1  0
 17 18  1  0
 18 19  2  0
 19 20  1  0
 20 21  2  0
 21 22  1  0
 22 23  2  0
 23 18  1  0
 23 24  1  0
  6 25  1  0
 25 26  2  0
 26  3  1  0
M  END
> <Smiles>
COc1ccc(NC(=O)CNCCCC(=O)Nc2ccccc2N)cc1

> <ID>
CHEMBL2035383

> <standard_value>
34000

> <IC50_uM>
34

> <Activity>
No

> <pIC50>
4.468521083

> <BCI>
0

$$$$

  SciTegic03012415362D

 36 41  0  0  1  0            999 V2000
    2.6018   -5.9994    0.0000 C   0  0
    3.9008   -5.2492    0.0000 O   0  0
    3.9014   -3.7484    0.0000 C   0  0
    2.6012   -3.0004    0.0000 C   0  0
    2.5987   -1.5004    0.0000 C   0  0
    1.2990   -0.7500    0.0000 C   0  0  2  0  0  0
    1.2990    0.7500    0.0000 C   0  0
    0.0000    1.5000    0.0000 C   0  0
   -0.3115    2.9665    0.0000 N   0  0
   -1.8032    3.1233    0.0000 C   0  0
   -2.6838    4.3363    0.0000 C   0  0
   -4.1756    4.1795    0.0000 C   0  0
   -4.7857    2.8092    0.0000 C   0  0
   -3.9040    1.5956    0.0000 C   0  0
   -2.4133    1.7530    0.0000 C   0  0
   -1.2990    0.7500    0.0000 C   0  0
   -1.2990   -0.7500    0.0000 C   0  0  2  0  0  0
   -2.4133   -1.7530    0.0000 C   0  0
   -3.8805   -1.4410    0.0000 O   0  0
   -1.8032   -3.1233    0.0000 N   0  0
   -2.5536   -4.4230    0.0000 C   0  0
   -4.0444   -4.5346    0.0000 C   0  0
   -4.6946   -5.8864    0.0000 C   0  0
   -3.8489   -7.1253    0.0000 C   0  0
   -2.3532   -7.0124    0.0000 C   0  0
   -1.7031   -5.6606    0.0000 C   0  0
   -0.3114   -2.9665    0.0000 C   0  0
    0.6924   -4.0811    0.0000 O   0  0
    0.0000   -1.5000    0.0000 C   0  0  2  0  0  0
    3.8967   -0.7484    0.0000 C   0  0
    5.1969   -1.4963    0.0000 C   0  0
    6.4939   -0.7411    0.0000 O   0  0
    6.4894    0.7589    0.0000 C   0  0
    5.1993   -2.9963    0.0000 C   0  0
    6.4987   -3.7473    0.0000 O   0  0
    6.4990   -5.2473    0.0000 C   0  0
  1  2  1  0
  2  3  1  0
  3  4  2  0
  4  5  1  0
  6  5  1  1
  6  7  1  0
  7  8  1  0
  8  9  1  0
  9 10  1  0
 10 11  2  0
 11 12  1  0
 12 13  2  0
 13 14  1  0
 14 15  2  0
 15 10  1  0
 15 16  1  0
 16  8  2  0
 17 16  1  1
 17 18  1  0
 18 19  2  0
 18 20  1  0
 20 21  1  0
 21 22  2  0
 22 23  1  0
 23 24  2  0
 24 25  1  0
 25 26  2  0
 26 21  1  0
 20 27  1  0
 27 28  2  0
 29 27  1  1
 29  6  1  0
 29 17  1  0
  5 30  2  0
 30 31  1  0
 31 32  1  0
 32 33  1  0
 31 34  2  0
 34  3  1  0
 34 35  1  0
 35 36  1  0
M  END
> <Smiles>
COc1cc([C@@H]2Cc3[nH]c4ccccc4c3[C@@H]3C(=O)N(c4ccccc4)C(=O)[C@H]23)cc(OC)c1OC

> <ID>
CHEMBL79408

> <standard_value>
34673.69

> <IC50_uM>
34.67369

> <Activity>
No

> <pIC50>
4.459999938

> <BCI>
0

$$$$

  SciTegic03012415362D

 20 22  0  0  0  0            999 V2000
    5.2059    1.4944    0.0000 C   0  0
    3.9046    0.7483    0.0000 O   0  0
    3.8991   -0.7525    0.0000 C   0  0
    5.1969   -1.5045    0.0000 C   0  0
    5.1945   -3.0045    0.0000 C   0  0
    3.8943   -3.7525    0.0000 C   0  0
    2.5965   -3.0004    0.0000 C   0  0
    2.5987   -1.5004    0.0000 C   0  0
    1.2990   -0.7500    0.0000 C   0  0
    1.2990    0.7500    0.0000 C   0  0
    0.0000    1.5000    0.0000 C   0  0
    0.0000    3.0000    0.0000 O   0  0
   -1.2990    0.7500    0.0000 C   0  0
   -2.5981    1.5000    0.0000 C   0  0
   -2.5981    3.0000    0.0000 C   0  0
   -3.8971    0.7500    0.0000 C   0  0
   -3.8971   -0.7500    0.0000 C   0  0
   -2.5981   -1.5000    0.0000 N   0  0
   -1.2990   -0.7500    0.0000 C   0  0
    0.0000   -1.5000    0.0000 N   0  0
  1  2  1  0
  2  3  1  0
  3  4  2  0
  4  5  1  0
  5  6  2  0
  6  7  1  0
  7  8  2  0
  8  3  1  0
  8  9  1  0
  9 10  2  0
 10 11  1  0
 11 12  1  0
 11 13  2  0
 13 14  1  0
 14 15  1  0
 14 16  2  0
 16 17  1  0
 17 18  2  0
 18 19  1  0
 19 13  1  0
 19 20  2  0
 20  9  1  0
M  END
> <Smiles>
COc1ccccc1-c1cc(O)c2c(C)ccnc2n1

> <ID>
CHEMBL72723

> <standard_value>
35481.34

> <IC50_uM>
35.48134

> <Activity>
No

> <pIC50>
4.449999987

> <BCI>
0

$$$$

  SciTegic03012415362D

 19 21  0  0  0  0            999 V2000
    2.5981   -1.5000    0.0000 C   0  0
    1.2990   -0.7500    0.0000 C   0  0
    1.2990    0.7500    0.0000 C   0  0
    0.0000    1.5000    0.0000 C   0  0
   -1.2990    0.7500    0.0000 N   0  0
   -1.2990   -0.7500    0.0000 C   0  0
   -2.5981   -1.5000    0.0000 N   0  0
   -2.5981   -3.0000    0.0000 C   0  0
   -3.8977   -3.7504    0.0000 C   0  0
   -5.1981   -3.0025    0.0000 C   0  0
   -6.4959   -3.7546    0.0000 C   0  0
   -6.4935   -5.2546    0.0000 C   0  0
   -7.7914   -6.0067    0.0000 F   0  0
   -5.1933   -6.0025    0.0000 C   0  0
   -3.8955   -5.2505    0.0000 C   0  0
   -1.2990   -3.7500    0.0000 C   0  0
    0.0000   -3.0000    0.0000 C   0  0
    1.2991   -3.7500    0.0000 O   0  0
    0.0000   -1.5000    0.0000 C   0  0
  1  2  1  0
  2  3  2  0
  3  4  1  0
  4  5  2  0
  5  6  1  0
  6  7  2  0
  7  8  1  0
  8  9  1  0
  9 10  2  0
 10 11  1  0
 11 12  2  0
 12 13  1  0
 12 14  1  0
 14 15  2  0
 15  9  1  0
  8 16  2  0
 16 17  1  0
 17 18  1  0
 17 19  2  0
 19  2  1  0
 19  6  1  0
M  END
> <Smiles>
Cc1ccnc2nc(-c3ccc(F)cc3)cc(O)c12

> <ID>
CHEMBL48515

> <standard_value>
36307.81

> <IC50_uM>
36.30781

> <Activity>
No

> <pIC50>
4.439999946

> <BCI>
0

$$$$

  SciTegic03012415362D

 19 21  0  0  0  0            999 V2000
    2.5981   -1.5000    0.0000 C   0  0
    1.2990   -0.7500    0.0000 C   0  0
    1.2990    0.7500    0.0000 C   0  0
    0.0000    1.5000    0.0000 C   0  0
   -1.2990    0.7500    0.0000 C   0  0
   -2.5981    1.5000    0.0000 C   0  0
   -2.5981    3.0000    0.0000 O   0  0
   -3.8971    0.7500    0.0000 C   0  0
   -3.8971   -0.7500    0.0000 C   0  0
   -5.1968   -1.5004    0.0000 C   0  0
   -6.4971   -0.7525    0.0000 C   0  0
   -7.7950   -1.5046    0.0000 C   0  0
   -7.7926   -3.0046    0.0000 C   0  0
   -9.0904   -3.7567    0.0000 F   0  0
   -6.4923   -3.7525    0.0000 C   0  0
   -5.1945   -3.0005    0.0000 C   0  0
   -2.5981   -1.5000    0.0000 N   0  0
   -1.2990   -0.7500    0.0000 C   0  0
    0.0000   -1.5000    0.0000 N   0  0
  1  2  1  0
  2  3  2  0
  3  4  1  0
  4  5  2  0
  5  6  1  0
  6  7  1  0
  6  8  2  0
  8  9  1  0
  9 10  1  0
 10 11  2  0
 11 12  1  0
 12 13  2  0
 13 14  1  0
 13 15  1  0
 15 16  2  0
 16 10  1  0
  9 17  2  0
 17 18  1  0
 18  5  1  0
 18 19  2  0
 19  2  1  0
M  END
> <Smiles>
Cc1ccc2c(O)cc(-c3ccc(F)cc3)nc2n1

> <ID>
CHEMBL313864

> <standard_value>
37153.52

> <IC50_uM>
37.15352

> <Activity>
No

> <pIC50>
4.430000034

> <BCI>
0

$$$$

  SciTegic03012415362D

 22 25  0  0  0  0            999 V2000
    2.5981   -1.5000    0.0000 C   0  0
    1.2990   -0.7500    0.0000 C   0  0
    1.2990    0.7500    0.0000 C   0  0
    0.0000    1.5000    0.0000 C   0  0
   -1.2990    0.7500    0.0000 C   0  0
   -2.5981    1.5000    0.0000 C   0  0
   -2.5981    3.0000    0.0000 O   0  0
   -3.8971    0.7500    0.0000 C   0  0
   -3.8971   -0.7500    0.0000 C   0  0
   -5.1968   -1.5004    0.0000 C   0  0
   -5.3323   -2.9815    0.0000 S   0  0
   -6.7983   -3.2953    0.0000 C   0  0
   -7.5463   -4.5955    0.0000 C   0  0
   -9.0463   -4.5979    0.0000 C   0  0
   -9.7983   -3.3000    0.0000 C   0  0
   -9.0504   -1.9998    0.0000 C   0  0
   -7.5504   -1.9974    0.0000 C   0  0
   -6.5492   -0.8815    0.0000 C   0  0
   -6.8548    0.5870    0.0000 C   0  0
   -2.5981   -1.5000    0.0000 N   0  0
   -1.2990   -0.7500    0.0000 C   0  0
    0.0000   -1.5000    0.0000 N   0  0
  1  2  1  0
  2  3  2  0
  3  4  1  0
  4  5  2  0
  5  6  1  0
  6  7  1  0
  6  8  2  0
  8  9  1  0
  9 10  1  0
 10 11  1  0
 11 12  1  0
 12 13  2  0
 13 14  1  0
 14 15  2  0
 15 16  1  0
 16 17  2  0
 17 12  1  0
 17 18  1  0
 18 10  2  0
 18 19  1  0
  9 20  2  0
 20 21  1  0
 21  5  1  0
 21 22  2  0
 22  2  1  0
M  END
> <Smiles>
Cc1ccc2c(O)cc(-c3sc4ccccc4c3C)nc2n1

> <ID>
CHEMBL334478

> <standard_value>
38904.51

> <IC50_uM>
38.90451

> <Activity>
No

> <pIC50>
4.41000005

> <BCI>
0

$$$$

  SciTegic03012415362D

 18 20  0  0  0  0            999 V2000
    2.5981   -1.5000    0.0000 O   0  0
    1.2990   -0.7500    0.0000 C   0  0
    1.2990    0.7500    0.0000 C   0  0
    0.0000    1.5000    0.0000 C   0  0
    0.0000    3.0008    0.0000 C   0  0
    1.2978    3.7529    0.0000 C   0  0
    1.2954    5.2529    0.0000 C   0  0
   -0.0048    6.0009    0.0000 C   0  0
   -0.0072    7.5009    0.0000 Cl  0  0
   -1.3026    5.2488    0.0000 C   0  0
   -1.3002    3.7488    0.0000 C   0  0
   -1.2990    0.7500    0.0000 N   0  0
   -1.2990   -0.7500    0.0000 C   0  0
   -2.5981   -1.5000    0.0000 N   0  0
   -2.5981   -3.0000    0.0000 C   0  0
   -1.2990   -3.7500    0.0000 C   0  0
    0.0000   -3.0000    0.0000 C   0  0
    0.0000   -1.5000    0.0000 C   0  0
  1  2  1  0
  2  3  2  0
  3  4  1  0
  4  5  1  0
  5  6  2  0
  6  7  1  0
  7  8  2  0
  8  9  1  0
  8 10  1  0
 10 11  2  0
 11  5  1  0
  4 12  2  0
 12 13  1  0
 13 14  2  0
 14 15  1  0
 15 16  2  0
 16 17  1  0
 17 18  2  0
 18  2  1  0
 18 13  1  0
M  END
> <Smiles>
Oc1cc(-c2ccc(Cl)cc2)nc2ncccc12

> <ID>
CHEMBL73273

> <standard_value>
39810.72

> <IC50_uM>
39.81072

> <Activity>
No

> <pIC50>
4.399999968

> <BCI>
0

$$$$

  SciTegic03012415362D

 25 26  0  0  1  0            999 V2000
    2.5951   -3.0031    0.0000 C   0  0
    2.5973   -1.5031    0.0000 O   0  0
    1.2990   -0.7500    0.0000 C   0  0
    1.2990    0.7500    0.0000 C   0  0
    0.0000    1.5000    0.0000 C   0  0
   -1.2990    0.7500    0.0000 C   0  0
   -2.6003    1.4977    0.0000 C   0  0
   -2.6030    2.9977    0.0000 C   0  0
   -3.8990    0.7455    0.0000 N   0  0
   -5.2003    1.4932    0.0000 N   0  0
   -6.4990    0.7409    0.0000 C   0  0
   -6.4964   -0.7591    0.0000 S   0  0
   -7.8003    1.4887    0.0000 N   0  0
   -9.0990    0.7364    0.0000 C   0  0
   -9.0964   -0.7636    0.0000 C   0  0
   -7.7988   -0.0116    0.0000 C   0  0
  -10.4003    1.4841    0.0000 C   0  0  1  0  0  0
  -11.6978    0.7314    0.0000 C   0  0
  -12.9984    1.4788    0.0000 C   0  0
  -13.0014    2.9788    0.0000 C   0  0
  -14.3020    3.7261    0.0000 C   0  0
  -11.7040    3.7314    0.0000 C   0  0
  -10.4034    2.9841    0.0000 C   0  0
   -1.2990   -0.7500    0.0000 C   0  0
    0.0000   -1.5000    0.0000 C   0  0
  1  2  1  0
  2  3  1  0
  3  4  2  0
  4  5  1  0
  5  6  2  0
  6  7  1  0
  7  8  1  0
  7  9  2  0
  9 10  1  0
 10 11  1  0
 11 12  2  0
 11 13  1  0
 13 14  1  0
 14 15  1  0
 14 16  1  0
 17 14  1  1
 17 18  1  0
 18 19  1  0
 19 20  2  0
 20 21  1  0
 20 22  1  0
 22 23  1  0
 23 17  1  0
  6 24  1  0
 24 25  2  0
 25  3  1  0
M  END
> <Smiles>
COc1ccc(/C(C)=N/NC(=S)NC(C)(C)[C@H]2CC=C(C)CC2)cc1

> <ID>
CHEMBL3235032

> <standard_value>
43400

> <IC50_uM>
43.4

> <Activity>
No

> <pIC50>
4.36251027

> <BCI>
0

$$$$

  SciTegic03012415362D

 33 36  0  0  1  0            999 V2000
   -3.0787   -6.5225    0.0000 C   0  0
   -4.5219   -6.1134    0.0000 C   0  0
   -4.8888   -4.6581    0.0000 C   0  0
   -3.8127   -3.6120    0.0000 C   0  0
   -2.3696   -4.0211    0.0000 O   0  0
   -4.1797   -2.1567    0.0000 O   0  0
   -3.1043   -1.1117    0.0000 C   0  0  1  0  0  0
   -1.5731   -1.5521    0.0000 C   0  0  2  0  0  0
   -0.9019   -2.9994    0.0000 C   0  0  2  0  0  0
   -1.6007   -4.3267    0.0000 C   0  0
    0.5873   -2.7477    0.0000 C   0  0
    0.9648   -1.1746    0.0000 C   0  0
   -0.4195   -0.4405    0.0000 C   0  0  1  0  0  0
   -0.7970    1.1117    0.0000 C   0  0  2  0  0  0
   -0.9768   -0.3775    0.0000 C   0  0
   -2.3492    1.5312    0.0000 O   0  0
   -3.4818    0.4824    0.0000 C   0  0  2  0  0  0
   -4.2821   -0.8064    0.0000 C   0  0
   -3.5966   -2.1406    0.0000 C   0  0
   -5.7803   -0.7335    0.0000 C   0  0
   -2.2653   -0.2936    0.0000 C   0  0
   -1.3634    0.0210    0.0000 C   0  0  1  0  0  0
   -0.4901   -1.2077    0.0000 N   0  0
    1.0040   -1.0656    0.0000 C   0  0
    1.6272    0.2988    0.0000 O   0  0
    1.8749   -2.2880    0.0000 C   0  0
    3.3681   -2.1459    0.0000 O   0  0
   -5.5980   -7.1595    0.0000 C   0  0
   -5.2333   -8.6146    0.0000 C   0  0
   -6.3110   -9.6579    0.0000 C   0  0
   -7.7534   -9.2463    0.0000 C   0  0
   -8.1182   -7.7913    0.0000 C   0  0
   -7.0405   -6.7480    0.0000 C   0  0
  1  2  1  0
  2  3  2  0
  3  4  1  0
  4  5  2  0
  4  6  1  0
  7  6  1  6
  8  7  1  1
  8  9  1  0
  9 10  1  1
  9 11  1  0
 11 12  1  0
 13 12  1  6
 13  8  1  0
 13 14  1  0
 14 15  1  6
 14 16  1  0
 16 17  1  0
 17  7  1  0
 17 18  1  6
 18 19  1  0
 18 20  1  0
 17 21  1  0
 21 22  1  0
 22 14  1  0
 22 23  1  6
 23 24  1  0
 24 25  2  0
 24 26  1  0
 26 27  1  0
  2 28  1  0
 28 29  2  0
 29 30  1  0
 30 31  2  0
 31 32  1  0
 32 33  2  0
 33 28  1  0
M  END
> <Smiles>
C/C(=C\C(=O)O[C@H]1[C@@H]2[C@H](C)CC[C@H]2[C@]2(C)O[C@@]1(C(C)C)C[C@H]2NC(=O)CO)c1ccccc1

> <ID>
CHEMBL3805463

> <standard_value>
43651.58

> <IC50_uM>
43.65158

> <Activity>
No

> <pIC50>
4.360000032

> <BCI>
0

$$$$

  SciTegic03012415362D

 27 29  0  0  0  0            999 V2000
    6.8652    5.2293    0.0000 C   0  0
    5.6387    6.0928    0.0000 C   0  0
    5.7733    7.5868    0.0000 C   0  0
    4.5469    8.4504    0.0000 C   0  0
    3.1858    7.8200    0.0000 C   0  0
    3.0511    6.3261    0.0000 C   0  0
    4.2776    5.4624    0.0000 C   0  0
    4.1398    3.9679    0.0000 N   0  0
    2.7771    3.3391    0.0000 C   0  0
    1.5521    4.2048    0.0000 O   0  0
    2.6395    1.8472    0.0000 C   0  0
    3.7691    0.8603    0.0000 C   0  0
    5.2305    1.1906    0.0000 N   0  0
    6.2497    0.0890    0.0000 C   0  0
    5.8051   -1.3436    0.0000 O   0  0
    7.7136    0.4199    0.0000 C   0  0
    9.1765    0.7514    0.0000 F   0  0
    8.1583    1.8525    0.0000 F   0  0
    8.7323   -0.6811    0.0000 Br  0  0
    3.1796   -0.5190    0.0000 S   0  0
    1.6852   -0.3846    0.0000 C   0  0
    1.3514    1.0778    0.0000 C   0  0
    0.0000    1.7286    0.0000 C   0  0
   -1.3515    1.0777    0.0000 C   0  0
   -1.6852   -0.3847    0.0000 C   0  0
   -0.7500   -1.5574    0.0000 C   0  0
    0.7500   -1.5574    0.0000 C   0  0
  1  2  1  0
  2  3  2  0
  3  4  1  0
  4  5  2  0
  5  6  1  0
  6  7  2  0
  7  2  1  0
  7  8  1  0
  8  9  1  0
  9 10  2  0
  9 11  1  0
 11 12  2  0
 12 13  1  0
 13 14  1  0
 14 15  2  0
 14 16  1  0
 16 17  1  0
 16 18  1  0
 16 19  1  0
 12 20  1  0
 20 21  1  0
 21 22  2  0
 22 11  1  0
 22 23  1  0
 23 24  1  0
 24 25  1  0
 25 26  1  0
 26 27  1  0
 27 21  1  0
M  END
> <Smiles>
Cc1ccccc1NC(=O)c1c(NC(=O)C(F)(F)Br)sc2c1CCCCC2

> <ID>
CHEMBL4074929

> <standard_value>
45330

> <IC50_uM>
45.33

> <Activity>
No

> <pIC50>
4.343614281

> <BCI>
0

$$$$

  SciTegic03012415362D

 18 20  0  0  0  0            999 V2000
    2.5981   -1.5000    0.0000 O   0  0
    1.2990   -0.7500    0.0000 C   0  0
    1.2990    0.7500    0.0000 C   0  0
    0.0000    1.5000    0.0000 C   0  0
    0.0000    3.0008    0.0000 C   0  0
    1.2978    3.7529    0.0000 C   0  0
    1.2954    5.2529    0.0000 C   0  0
   -0.0048    6.0009    0.0000 C   0  0
   -0.0072    7.5009    0.0000 F   0  0
   -1.3026    5.2488    0.0000 C   0  0
   -1.3002    3.7488    0.0000 C   0  0
   -1.2990    0.7500    0.0000 N   0  0
   -1.2990   -0.7500    0.0000 C   0  0
   -2.5981   -1.5000    0.0000 N   0  0
   -2.5981   -3.0000    0.0000 C   0  0
   -1.2990   -3.7500    0.0000 C   0  0
    0.0000   -3.0000    0.0000 C   0  0
    0.0000   -1.5000    0.0000 C   0  0
  1  2  1  0
  2  3  2  0
  3  4  1  0
  4  5  1  0
  5  6  2  0
  6  7  1  0
  7  8  2  0
  8  9  1  0
  8 10  1  0
 10 11  2  0
 11  5  1  0
  4 12  2  0
 12 13  1  0
 13 14  2  0
 14 15  1  0
 15 16  2  0
 16 17  1  0
 17 18  2  0
 18  2  1  0
 18 13  1  0
M  END
> <Smiles>
Oc1cc(-c2ccc(F)cc2)nc2ncccc12

> <ID>
CHEMBL312518

> <standard_value>
47863.01

> <IC50_uM>
47.86301

> <Activity>
No

> <pIC50>
4.319999993

> <BCI>
0

$$$$

  SciTegic03012415362D

 29 33  0  0  0  0            999 V2000
    1.6120   -3.9767    0.0000 O   0  0
    2.7343   -2.9815    0.0000 C   0  0
    4.2010   -3.2956    0.0000 C   0  0
    4.9531   -1.9978    0.0000 S   0  0
    3.9511   -0.8815    0.0000 C   0  0
    4.2567    0.5852    0.0000 N   0  0
    3.1381    1.5857    0.0000 N   0  0
    3.4443    3.0550    0.0000 C   0  0
    2.3257    4.0555    0.0000 C   0  0
    0.8764    3.7215    0.0000 C   0  0
    0.1197    5.0166    0.0000 N   0  0
    1.1172    6.1358    0.0000 C   0  0
    0.9526    7.6267    0.0000 C   0  0
    2.1615    8.5147    0.0000 C   0  0
    3.5350    7.9118    0.0000 C   0  0
    4.7439    8.7998    0.0000 Br  0  0
    3.6996    6.4208    0.0000 C   0  0
    2.4907    5.5328    0.0000 C   0  0
    2.5987   -1.5004    0.0000 N   0  0
    1.2990   -0.7500    0.0000 C   0  0  3  0  0  0
    1.2990    0.7500    0.0000 C   0  0
    0.0000    1.5000    0.0000 C   0  0
   -1.2990    0.7500    0.0000 C   0  0
   -1.2990   -0.7500    0.0000 C   0  0
   -2.5981   -1.5000    0.0000 C   0  0
   -2.5981   -3.0000    0.0000 C   0  0
   -1.2990   -3.7500    0.0000 C   0  0
    0.0000   -3.0000    0.0000 C   0  0
    0.0000   -1.5000    0.0000 C   0  0
  1  2  2  0
  2  3  1  0
  3  4  1  0
  4  5  1  0
  5  6  2  0
  6  7  1  0
  7  8  2  0
  8  9  1  0
  9 10  2  0
 10 11  1  0
 11 12  1  0
 12 13  2  0
 13 14  1  0
 14 15  2  0
 15 16  1  0
 15 17  1  0
 17 18  2  0
 18  9  1  0
 18 12  1  0
  5 19  1  0
 19  2  1  0
 19 20  1  0
 20 21  2  0
 21 22  1  0
 22 23  2  0
 23 24  1  0
 24 25  2  0
 25 26  1  0
 26 27  2  0
 27 28  1  0
 28 29  2  0
 20 29  1  4
 29 24  1  0
M  END
> <Smiles>
O=C1CS/C(=N/N=C/c2c[nH]c3ccc(Br)cc23)N1c1cccc2ccccc12

> <ID>
CHEMBL4167116

> <standard_value>
48810

> <IC50_uM>
48.81

> <Activity>
No

> <pIC50>
4.311491192

> <BCI>
0

$$$$

  SciTegic03012415362D

 30 33  0  0  0  0            999 V2000
    6.4773    3.7652    0.0000 O   0  0
    7.7802    3.0220    0.0000 S   0  0
    7.7722    4.5219    0.0000 O   0  0
    9.0758    3.7795    0.0000 C   0  0
    9.0685    5.2803    0.0000 C   0  0
   10.3641    6.0379    0.0000 C   0  0
   10.3590    7.5379    0.0000 C   0  0
   11.6554    8.2925    0.0000 C   0  0
   12.9570    7.5470    0.0000 C   0  0
   14.2534    8.3015    0.0000 Cl  0  0
   12.9622    6.0470    0.0000 C   0  0
   11.6658    5.2925    0.0000 C   0  0
    7.7876    1.5211    0.0000 C   0  0
    6.4920    0.7636    0.0000 C   0  0
    6.4972   -0.7364    0.0000 C   0  0
    5.2007   -1.4909    0.0000 C   0  0
    3.8990   -0.7455    0.0000 C   0  0
    2.6003   -1.4977    0.0000 N   0  0
    1.2990   -0.7500    0.0000 C   0  0
    1.2990    0.7500    0.0000 N   0  0
    0.0000    1.5000    0.0000 C   0  0
   -1.2990    0.7500    0.0000 N   0  0
   -1.2990   -0.7500    0.0000 C   0  0
   -2.5981   -1.5000    0.0000 C   0  0
   -2.5981   -3.0000    0.0000 C   0  0
   -1.2990   -3.7500    0.0000 C   0  0
    0.0000   -3.0000    0.0000 C   0  0
    0.0000   -1.5000    0.0000 C   0  0
    3.8939    0.7546    0.0000 C   0  0
    5.1903    1.5091    0.0000 C   0  0
  1  2  2  0
  2  3  2  0
  2  4  1  0
  4  5  2  0
  5  6  1  0
  6  7  2  0
  7  8  1  0
  8  9  2  0
  9 10  1  0
  9 11  1  0
 11 12  2  0
 12  6  1  0
  2 13  1  0
 13 14  1  0
 14 15  2  0
 15 16  1  0
 16 17  2  0
 17 18  1  0
 18 19  1  0
 19 20  2  0
 20 21  1  0
 21 22  2  0
 22 23  1  0
 23 24  2  0
 24 25  1  0
 25 26  2  0
 26 27  1  0
 27 28  2  0
 28 19  1  0
 28 23  1  0
 17 29  1  0
 29 30  2  0
 30 14  1  0
M  END
> <Smiles>
O=S(=O)(/C=C/c1ccc(Cl)cc1)Cc1ccc(Nc2ncnc3ccccc23)cc1

> <ID>
CHEMBL164092

> <standard_value>
49000

> <IC50_uM>
49

> <Activity>
No

> <pIC50>
4.30980392

> <BCI>
0

$$$$

  SciTegic03012415362D

 40 44  0  0  1  0            999 V2000
   11.6982   -0.7323    0.0000 C   0  0
   10.4003   -1.4841    0.0000 C   0  0
   10.4029   -2.9841    0.0000 C   0  0
   11.7005   -2.2321    0.0000 C   0  0
    9.0990   -0.7364    0.0000 O   0  0
    7.8003   -1.4887    0.0000 C   0  0
    7.8029   -2.9887    0.0000 O   0  0
    6.4990   -0.7409    0.0000 N   0  0
    5.2003   -1.4932    0.0000 C   0  0
    3.8990   -0.7455    0.0000 C   0  0
    3.8964    0.7545    0.0000 O   0  0
    2.6003   -1.4977    0.0000 O   0  0
    1.2990   -0.7500    0.0000 C   0  0  2  0  0  0
    1.2990    0.7500    0.0000 C   0  0
    0.0000    1.5000    0.0000 C   0  0  3  0  0  0
    0.0000    3.0000    0.0000 C   0  0
    1.2810    2.2196    0.0000 C   0  0
   -0.0353    4.4996    0.0000 C   0  0
   -1.2991    3.7500    0.0000 C   0  0
   -1.2991    5.2500    0.0000 O   0  0
   -2.5981    3.0000    0.0000 C   0  0
   -2.5981    1.5000    0.0000 C   0  0
   -1.2990    0.7500    0.0000 C   0  0  1  0  0  0
   -2.5981    0.0000    0.0000 C   0  0
   -1.2990   -0.7500    0.0000 C   0  0  3  0  0  0
   -2.5981   -1.5000    0.0000 C   0  0
   -2.5981   -3.0000    0.0000 C   0  0
   -1.2990   -3.7500    0.0000 C   0  0  2  0  0  0
   -2.5202   -4.6211    0.0000 C   0  0
    0.0000   -3.0000    0.0000 C   0  0
    1.0957   -4.0166    0.0000 C   0  0
    0.4768   -5.3829    0.0000 C   0  0
   -1.0139   -5.2166    0.0000 C   0  0  1  0  0  0
   -2.0314   -6.3198    0.0000 C   0  0
   -3.5120   -6.2507    0.0000 C   0  0
   -4.0242   -7.6606    0.0000 C   0  0
   -2.8416   -8.5833    0.0000 O   0  0
   -1.5985   -7.7438    0.0000 C   0  0
    0.0000   -1.5000    0.0000 C   0  0  2  0  0  0
    1.2990   -2.2500    0.0000 C   0  0
  1  2  1  0
  2  3  1  0
  2  4  1  0
  2  5  1  0
  5  6  1  0
  6  7  2  0
  6  8  1  0
  8  9  1  0
  9 10  1  0
 10 11  2  0
 10 12  1  0
 13 12  1  1
 13 14  1  0
 15 14  1  4
 15 16  1  0
 16 17  1  0
 16 18  1  0
 16 19  1  0
 19 20  2  0
 19 21  1  0
 21 22  2  0
 22 23  1  0
 23 15  1  0
 23 24  1  6
 23 25  1  0
 25 26  1  4
 26 27  1  0
 27 28  1  0
 28 29  1  1
 28 30  1  0
 30 31  2  0
 31 32  1  0
 32 33  1  0
 33 28  1  0
 33 34  1  1
 34 35  1  0
 35 36  2  0
 36 37  1  0
 37 38  1  0
 38 34  2  0
 30 39  1  0
 39 25  1  0
 39 13  1  0
 39 40  1  6
M  END
> <Smiles>
CC(C)(C)OC(=O)NCC(=O)O[C@@H]1CC2C(C)(C)C(=O)C=C[C@]2(C)C2CC[C@]3(C)C(=CC[C@H]3c3ccoc3)[C@@]21C

> <ID>
CHEMBL131379

> <standard_value>
50000

> <IC50_uM>
50

> <Activity>
No

> <pIC50>
4.301029996

> <BCI>
0

$$$$

  SciTegic03012415362D

 26 28  0  0  1  0            999 V2000
   -0.0041   -2.9953    0.0000 C   0  0
    1.2925   -3.7494    0.0000 C   0  0
    2.5951   -3.0039    0.0000 C   0  0  2  0  0  0
    3.8933   -3.7570    0.0000 C   0  0
    3.8912   -5.2570    0.0000 O   0  0
    2.5973   -1.5031    0.0000 N   0  0
    1.2990   -0.7500    0.0000 C   0  0
    1.2990    0.7500    0.0000 N   0  0
    0.0000    1.5000    0.0000 C   0  0
    0.0031    3.0008    0.0000 N   0  0
    1.3039    3.7494    0.0000 C   0  0
    1.3070    5.2502    0.0000 C   0  0
    2.6060    6.0003    0.0000 C   0  0
    2.6060    7.5003    0.0000 C   0  0
    1.3070    8.2503    0.0000 C   0  0
    0.0079    7.5003    0.0000 C   0  0
    0.0079    6.0003    0.0000 C   0  0
   -1.2990    0.7500    0.0000 C   0  0
   -2.7248    1.2135    0.0000 N   0  0
   -3.6065    0.0000    0.0000 C   0  0
   -2.7248   -1.2135    0.0000 N   0  0
   -3.1904   -2.6376    0.0000 C   0  0
   -4.6580   -2.9476    0.0000 C   0  0
   -2.1885   -3.7539    0.0000 C   0  0
   -1.2990   -0.7500    0.0000 C   0  0
    0.0000   -1.5000    0.0000 N   0  0
  1  2  1  0
  3  2  1  1
  3  4  1  0
  4  5  1  0
  3  6  1  0
  6  7  1  0
  7  8  2  0
  8  9  1  0
  9 10  1  0
 10 11  1  0
 11 12  1  0
 12 13  2  0
 13 14  1  0
 14 15  2  0
 15 16  1  0
 16 17  2  0
 17 12  1  0
  9 18  2  0
 18 19  1  0
 19 20  2  0
 20 21  1  0
 21 22  1  0
 22 23  1  0
 22 24  1  0
 21 25  1  0
 25 18  1  0
 25 26  2  0
 26  7  1  0
M  END
> <Smiles>
CC[C@H](CO)Nc1nc(NCc2ccccc2)c2ncn(C(C)C)c2n1

> <ID>
CHEMBL14762

> <standard_value>
50100

> <IC50_uM>
50.1

> <Activity>
No

> <pIC50>
4.300162274

> <BCI>
0

$$$$

  SciTegic03012415362D

 32 35  0  0  0  0            999 V2000
    6.4773    3.7652    0.0000 O   0  0
    7.7802    3.0220    0.0000 S   0  0
    7.7722    4.5219    0.0000 O   0  0
    9.0758    3.7795    0.0000 C   0  0
    9.0685    5.2803    0.0000 C   0  0
   10.3641    6.0379    0.0000 C   0  0
   11.6658    5.2925    0.0000 C   0  0
   12.9622    6.0470    0.0000 C   0  0
   12.9570    7.5470    0.0000 C   0  0
   14.2534    8.3015    0.0000 Cl  0  0
   11.6554    8.2925    0.0000 C   0  0
   10.3589    7.5379    0.0000 C   0  0
    9.0573    8.2834    0.0000 Cl  0  0
    7.7876    1.5211    0.0000 C   0  0
    6.4920    0.7636    0.0000 C   0  0
    6.4972   -0.7364    0.0000 C   0  0
    5.2007   -1.4909    0.0000 C   0  0
    3.8990   -0.7455    0.0000 C   0  0
    2.6003   -1.4977    0.0000 N   0  0
    1.2990   -0.7500    0.0000 C   0  0
    1.2990    0.7500    0.0000 N   0  0
    0.0000    1.5000    0.0000 C   0  0
   -1.2990    0.7500    0.0000 N   0  0
   -1.2990   -0.7500    0.0000 C   0  0
   -2.5981   -1.5000    0.0000 C   0  0
   -2.5981   -3.0000    0.0000 C   0  0
   -3.8971   -3.7500    0.0000 Cl  0  0
   -1.2990   -3.7500    0.0000 C   0  0
    0.0000   -3.0000    0.0000 C   0  0
    0.0000   -1.5000    0.0000 C   0  0
    3.8939    0.7546    0.0000 C   0  0
    5.1903    1.5091    0.0000 C   0  0
  1  2  2  0
  2  3  2  0
  2  4  1  0
  4  5  2  0
  5  6  1  0
  6  7  2  0
  7  8  1  0
  8  9  2  0
  9 10  1  0
  9 11  1  0
 11 12  2  0
 12  6  1  0
 12 13  1  0
  2 14  1  0
 14 15  1  0
 15 16  2  0
 16 17  1  0
 17 18  2  0
 18 19  1  0
 19 20  1  0
 20 21  2  0
 21 22  1  0
 22 23  2  0
 23 24  1  0
 24 25  2  0
 25 26  1  0
 26 27  1  0
 26 28  2  0
 28 29  1  0
 29 30  2  0
 30 20  1  0
 30 24  1  0
 18 31  1  0
 31 32  2  0
 32 15  1  0
M  END
> <Smiles>
O=S(=O)(/C=C/c1ccc(Cl)cc1Cl)Cc1ccc(Nc2ncnc3cc(Cl)ccc23)cc1

> <ID>
CHEMBL350516

> <standard_value>
53000

> <IC50_uM>
53

> <Activity>
No

> <pIC50>
4.27572413

> <BCI>
0

$$$$

  SciTegic03012415362D

 19 21  0  0  0  0            999 V2000
    6.4870   -5.2597    0.0000 C   0  0
    6.4915   -3.7597    0.0000 O   0  0
    5.1945   -3.0045    0.0000 C   0  0
    5.1969   -1.5045    0.0000 C   0  0
    3.8991   -0.7525    0.0000 C   0  0
    2.5987   -1.5004    0.0000 C   0  0
    1.2990   -0.7500    0.0000 C   0  0
    1.2990    0.7500    0.0000 C   0  0
    0.0000    1.5000    0.0000 C   0  0
    0.0000    3.0000    0.0000 O   0  0
   -1.2990    0.7500    0.0000 C   0  0
   -2.5981    1.5000    0.0000 C   0  0
   -3.8971    0.7500    0.0000 C   0  0
   -3.8971   -0.7500    0.0000 C   0  0
   -2.5981   -1.5000    0.0000 N   0  0
   -1.2990   -0.7500    0.0000 C   0  0
    0.0000   -1.5000    0.0000 N   0  0
    2.5965   -3.0004    0.0000 C   0  0
    3.8943   -3.7525    0.0000 C   0  0
  1  2  1  0
  2  3  1  0
  3  4  2  0
  4  5  1  0
  5  6  2  0
  6  7  1  0
  7  8  2  0
  8  9  1  0
  9 10  1  0
  9 11  2  0
 11 12  1  0
 12 13  2  0
 13 14  1  0
 14 15  2  0
 15 16  1  0
 16 11  1  0
 16 17  2  0
 17  7  1  0
  6 18  1  0
 18 19  2  0
 19  3  1  0
M  END
> <Smiles>
COc1ccc(-c2cc(O)c3cccnc3n2)cc1

> <ID>
CHEMBL73218

> <standard_value>
53703.18

> <IC50_uM>
53.70318

> <Activity>
No

> <pIC50>
4.269999997

> <BCI>
0

$$$$

  SciTegic03012415362D

 26 29  0  0  0  0            999 V2000
   -7.6282   -9.5935    0.0000 C   0  0
   -6.1327   -9.4784    0.0000 C   0  0
   -5.4846   -8.1256    0.0000 C   0  0
   -3.9890   -8.0104    0.0000 C   0  0
   -3.1453   -9.2443    0.0000 C   0  0
   -1.6445   -9.2482    0.0000 N   0  0
   -0.7588  -10.4589    0.0000 C   0  0
   -1.2177  -11.8870    0.0000 O   0  0
    0.6662   -9.9906    0.0000 C   0  0
    0.6613   -8.4906    0.0000 S   0  0
   -0.7600   -8.0526    0.0000 C   0  0
   -1.2256   -6.6258    0.0000 N   0  0
   -2.6938   -6.3147    0.0000 N   0  0
   -3.1594   -4.8879    0.0000 C   0  0
   -4.6251   -4.5772    0.0000 C   0  0
   -5.7373   -5.5837    0.0000 C   0  0
   -7.0382   -4.8369    0.0000 N   0  0
   -6.7299   -3.3698    0.0000 C   0  0
   -7.6146   -2.1584    0.0000 C   0  0
   -7.0078   -0.7866    0.0000 C   0  0
   -5.5165   -0.6261    0.0000 C   0  0
   -4.9098    0.7457    0.0000 Br  0  0
   -4.6318   -1.8375    0.0000 C   0  0
   -5.2385   -3.2093    0.0000 C   0  0
   -3.7896  -10.6009    0.0000 C   0  0
   -5.2852  -10.7160    0.0000 C   0  0
  1  2  1  0
  2  3  2  0
  3  4  1  0
  4  5  2  0
  5  6  1  0
  6  7  1  0
  7  8  2  0
  7  9  1  0
  9 10  1  0
 10 11  1  0
 11  6  1  0
 11 12  2  0
 12 13  1  0
 13 14  2  0
 14 15  1  0
 15 16  2  0
 16 17  1  0
 17 18  1  0
 18 19  2  0
 19 20  1  0
 20 21  2  0
 21 22  1  0
 21 23  1  0
 23 24  2  0
 24 15  1  0
 24 18  1  0
  5 25  1  0
 25 26  2  0
 26  2  1  0
M  END
> <Smiles>
Cc1ccc(N2C(=O)CS/C2=N/N=C/c2c[nH]c3ccc(Br)cc23)cc1

> <ID>
CHEMBL4159598

> <standard_value>
54710

> <IC50_uM>
54.71

> <Activity>
No

> <pIC50>
4.261933285

> <BCI>
0

$$$$

  SciTegic03012415362D

 52 59  0  0  1  0            999 V2000
    2.5981   -1.5000    0.0000 C   0  0
    1.2990   -0.7500    0.0000 C   0  0
    1.2990    0.7500    0.0000 C   0  0
    2.5981    1.5000    0.0000 C   0  0
    2.5981    3.0000    0.0000 C   0  0
    1.2990    3.7500    0.0000 N   0  0
    0.0000    3.0000    0.0000 C   0  0
    0.0000    1.5000    0.0000 C   0  0
   -1.2990    0.7500    0.0000 C   0  0
   -2.5981    1.5000    0.0000 C   0  0
   -1.2990   -0.7500    0.0000 C   0  0
    0.0000   -1.5000    0.0000 C   0  0
   -0.3114   -2.9665    0.0000 N   0  0
   -1.8032   -3.1233    0.0000 C   0  0
   -2.6837   -4.3363    0.0000 C   0  0
   -4.1755   -4.1795    0.0000 C   0  0
   -4.7856   -2.8092    0.0000 C   0  0
   -6.2779   -2.6493    0.0000 C   0  0
   -7.1617   -3.8612    0.0000 O   0  0
   -6.8864   -1.2773    0.0000 N   0  0
   -8.3787   -1.1174    0.0000 C   0  0
   -8.9872    0.2546    0.0000 C   0  0
  -10.4795    0.4145    0.0000 C   0  0
  -11.0879    1.7865    0.0000 C   0  0
  -12.5802    1.9464    0.0000 C   0  0
  -13.1887    3.3183    0.0000 C   0  0
  -14.6810    3.4783    0.0000 N   0  0
  -15.2895    4.8502    0.0000 C   0  0
  -14.4057    6.0622    0.0000 O   0  0
  -16.7818    5.0102    0.0000 C   0  0
  -17.3902    6.3821    0.0000 C   0  0  2  0  0  0
  -18.3846    6.4884    0.0000 O   0  0
  -15.9285    6.3369    0.0000 C   0  0
  -15.4713    7.7655    0.0000 C   0  0
  -16.6768    8.6490    0.0000 C   0  0  1  0  0  0
  -16.8498   10.1390    0.0000 C   0  0  2  0  0  0
  -15.6459   11.0338    0.0000 C   0  0
  -15.8189   12.5238    0.0000 C   0  0
  -17.1957   13.1190    0.0000 C   0  0
  -17.3687   14.6090    0.0000 C   0  0
  -18.7455   15.2042    0.0000 C   0  0
  -18.9185   16.6942    0.0000 O   0  0
  -19.9494   14.3094    0.0000 C   0  0
  -19.7765   12.8194    0.0000 C   0  0
  -18.3996   12.2242    0.0000 C   0  0
  -18.2266   10.7342    0.0000 C   0  0  1  0  0  0
  -19.4305    9.8394    0.0000 C   0  0
  -19.2576    8.3494    0.0000 C   0  0
  -17.8807    7.7542    0.0000 C   0  0  2  0  0  0
  -18.6104    7.0703    0.0000 C   0  0
   -3.9040   -1.5957    0.0000 C   0  0
   -2.4133   -1.7530    0.0000 C   0  0
  1  2  1  0
  2  3  2  0
  3  4  1  0
  4  5  2  0
  5  6  1  0
  6  7  2  0
  7  8  1  0
  8  3  1  0
  8  9  2  0
  9 10  1  0
  9 11  1  0
 11 12  2  0
 12  2  1  0
 12 13  1  0
 13 14  1  0
 14 15  2  0
 15 16  1  0
 16 17  2  0
 17 18  1  0
 18 19  2  0
 18 20  1  0
 20 21  1  0
 21 22  1  0
 22 23  1  0
 23 24  1  0
 24 25  1  0
 25 26  1  0
 26 27  1  0
 27 28  1  0
 28 29  2  0
 28 30  1  0
 30 31  1  0
 31 32  1  6
 31 33  1  0
 33 34  1  0
 35 34  1  6
 35 36  1  0
 36 37  1  1
 37 38  1  0
 38 39  1  0
 39 40  2  0
 40 41  1  0
 41 42  1  0
 41 43  2  0
 43 44  1  0
 44 45  2  0
 45 39  1  0
 45 46  1  0
 46 36  1  0
 46 47  1  6
 47 48  1  0
 48 49  1  0
 49 35  1  0
 49 31  1  0
 49 50  1  6
 17 51  1  0
 51 52  2  0
 52 14  1  0
 52 11  1  0
M  END
> <Smiles>
Cc1c2ccncc2c(C)c2c1[nH]c1ccc(C(=O)NCCCCCCNC(=O)C[C@]3(O)CC[C@H]4[C@@H]5CCc6cc(O)ccc6[C@H]5CC[C@@]43C)cc12

> <ID>
CHEMBL1627914

> <standard_value>
55900

> <IC50_uM>
55.9

> <Activity>
No

> <pIC50>
4.252588192

> <BCI>
0

$$$$

  SciTegic03012415362D

 25 26  0  0  0  0            999 V2000
    2.5981   -1.5000    0.0000 C   0  0
    1.2990   -0.7500    0.0000 C   0  0
    1.2990    0.7500    0.0000 C   0  0
    0.0000    1.5000    0.0000 C   0  0
   -1.2990    0.7500    0.0000 C   0  0
   -2.6003    1.4977    0.0000 N   0  0
   -3.8990    0.7455    0.0000 C   0  0
   -3.8964   -0.7545    0.0000 O   0  0
   -5.2003    1.4932    0.0000 C   0  0
   -6.4990    0.7409    0.0000 N   0  0
   -7.8003    1.4887    0.0000 C   0  0
   -9.0990    0.7364    0.0000 C   0  0
  -10.4003    1.4841    0.0000 C   0  0
  -11.6990    0.7318    0.0000 C   0  0
  -11.6963   -0.7681    0.0000 O   0  0
  -13.0003    1.4796    0.0000 N   0  0
  -14.2989    0.7273    0.0000 C   0  0
  -14.2938   -0.7728    0.0000 C   0  0
  -15.5902   -1.5272    0.0000 C   0  0
  -16.8919   -0.7817    0.0000 C   0  0
  -16.8971    0.7183    0.0000 C   0  0
  -15.6006    1.4727    0.0000 C   0  0
  -15.6059    2.9727    0.0000 N   0  0
   -1.2990   -0.7500    0.0000 C   0  0
    0.0000   -1.5000    0.0000 C   0  0
  1  2  1  0
  2  3  2  0
  3  4  1  0
  4  5  2  0
  5  6  1  0
  6  7  1  0
  7  8  2  0
  7  9  1  0
  9 10  1  0
 10 11  1  0
 11 12  1  0
 12 13  1  0
 13 14  1  0
 14 15  2  0
 14 16  1  0
 16 17  1  0
 17 18  2  0
 18 19  1  0
 19 20  2  0
 20 21  1  0
 21 22  2  0
 22 17  1  0
 22 23  1  0
  5 24  1  0
 24 25  2  0
 25  2  1  0
M  END
> <Smiles>
Cc1ccc(NC(=O)CNCCCC(=O)Nc2ccccc2N)cc1

> <ID>
CHEMBL2035384

> <standard_value>
57000

> <IC50_uM>
57

> <Activity>
No

> <pIC50>
4.244125144

> <BCI>
0

$$$$

  SciTegic03012415362D

 25 26  0  0  1  0            999 V2000
    2.5981   -1.5000    0.0000 C   0  0
    1.2990   -0.7500    0.0000 C   0  0
    1.2990    0.7500    0.0000 C   0  0
    0.0000    1.5000    0.0000 C   0  0
   -1.2990    0.7500    0.0000 C   0  0  2  0  0  0
   -2.5988    1.5004    0.0000 C   0  0
   -3.8976    0.7500    0.0000 C   0  0
   -3.8982    2.2498    0.0000 C   0  0
   -2.5998    3.0012    0.0000 N   0  0
   -3.8995    3.7516    0.0000 C   0  0
   -5.1983    3.0012    0.0000 S   0  0
   -3.9005    5.2525    0.0000 N   0  0
   -5.2002    6.0029    0.0000 N   0  0
   -5.2012    7.5037    0.0000 C   0  0
   -6.5009    8.2541    0.0000 C   0  0
   -6.5041    9.7541    0.0000 C   0  0
   -7.8047   10.5015    0.0000 C   0  0
   -9.1022    9.7488    0.0000 C   0  0
  -10.4050   10.4939    0.0000 N   0  0
  -11.7014    9.7394    0.0000 C   0  0
  -10.4107   11.9939    0.0000 C   0  0
   -9.0991    8.2488    0.0000 C   0  0
   -7.7985    7.5015    0.0000 C   0  0
   -1.2990   -0.7500    0.0000 C   0  0
    0.0000   -1.5000    0.0000 C   0  0
  1  2  1  0
  2  3  2  0
  3  4  1  0
  4  5  1  0
  5  6  1  1
  6  7  1  0
  6  8  1  0
  6  9  1  0
  9 10  1  0
 10 11  2  0
 10 12  1  0
 12 13  1  0
 13 14  2  0
 14 15  1  0
 15 16  2  0
 16 17  1  0
 17 18  2  0
 18 19  1  0
 19 20  1  0
 19 21  1  0
 18 22  1  0
 22 23  2  0
 23 15  1  0
  5 24  1  0
 24 25  1  0
 25  2  1  0
M  END
> <Smiles>
CC1=CC[C@H](C(C)(C)NC(=S)N/N=C/c2ccc(N(C)C)cc2)CC1

> <ID>
CHEMBL3235020

> <standard_value>
57700

> <IC50_uM>
57.7

> <Activity>
No

> <pIC50>
4.238824187

> <BCI>
0

$$$$

  SciTegic03012415362D

 31 36  0  0  0  0            999 V2000
    8.5328    1.9902    0.0000 C   0  0
    7.4154    2.9910    0.0000 C   0  0
    5.9900    2.5237    0.0000 C   0  0
    5.6819    1.0557    0.0000 C   0  0
    4.2567    0.5852    0.0000 C   0  0
    3.9511   -0.8815    0.0000 N   0  0
    4.9531   -1.9978    0.0000 N   0  0
    4.2010   -3.2956    0.0000 N   0  0
    2.7343   -2.9815    0.0000 N   0  0
    2.5987   -1.5004    0.0000 C   0  0
    1.2990   -0.7500    0.0000 C   0  0
    1.2990    0.7500    0.0000 C   0  0
    0.0000    1.5000    0.0000 C   0  0
   -1.2990    0.7500    0.0000 C   0  0
   -2.4133    1.7530    0.0000 N   0  0
   -1.8032    3.1233    0.0000 C   0  0
   -2.4135    4.4923    0.0000 C   0  0
   -1.5318    5.7059    0.0000 C   0  0
   -0.0400    5.5491    0.0000 C   0  0
    0.5701    4.1788    0.0000 C   0  0
   -0.3115    2.9665    0.0000 C   0  0
   -1.2990   -0.7500    0.0000 C   0  0
   -2.5987   -1.5004    0.0000 C   0  0
   -3.8991   -0.7525    0.0000 C   0  0
   -5.1969   -1.5046    0.0000 C   0  0
   -5.1945   -3.0046    0.0000 C   0  0
   -3.8943   -3.7525    0.0000 C   0  0
   -2.5964   -3.0004    0.0000 C   0  0
    0.0000   -1.5000    0.0000 N   0  0
    6.7994    0.0549    0.0000 C   0  0
    8.2247    0.5221    0.0000 C   0  0
  1  2  2  0
  2  3  1  0
  3  4  2  0
  4  5  1  0
  5  6  1  0
  6  7  1  0
  7  8  2  0
  8  9  1  0
  9 10  2  0
 10  6  1  0
 10 11  1  0
 11 12  2  0
 12 13  1  0
 13 14  2  0
 14 15  1  0
 15 16  1  0
 16 17  2  0
 17 18  1  0
 18 19  2  0
 19 20  1  0
 20 21  2  0
 21 16  1  0
 21 13  1  0
 14 22  1  0
 22 23  1  0
 23 24  2  0
 24 25  1  0
 25 26  2  0
 26 27  1  0
 27 28  2  0
 28 23  1  0
 22 29  2  0
 29 11  1  0
  4 30  1  0
 30 31  2  0
 31  1  1  0
M  END
> <Smiles>
c1ccc(Cn2nnnc2-c2cc3c([nH]c4ccccc43)c(-c3ccccc3)n2)cc1

> <ID>
CHEMBL4475631

> <standard_value>
63530

> <IC50_uM>
63.53

> <Activity>
No

> <pIC50>
4.197021145

> <BCI>
0

$$$$

  SciTegic03012415362D

 29 32  0  0  0  0            999 V2000
    9.0914   -9.7587    0.0000 O   0  0
    9.0888   -8.2588    0.0000 C   0  0
   10.3875   -7.5065    0.0000 N   0  0
   11.6881   -8.2539    0.0000 O   0  0
    7.7875   -7.5110    0.0000 N   0  0
    6.4885   -8.2610    0.0000 C   0  0
    5.1895   -7.5109    0.0000 C   0  0
    5.1894   -6.0109    0.0000 N   0  0
    3.8912   -5.2578    0.0000 C   0  0
    2.5909   -6.0056    0.0000 S   0  0
    3.8933   -3.7570    0.0000 N   0  0
    2.5951   -3.0039    0.0000 N   0  0
    2.5973   -1.5031    0.0000 C   0  0
    1.2990   -0.7500    0.0000 C   0  0
    1.2990    0.7500    0.0000 C   0  0
    2.5981    1.5000    0.0000 C   0  0
    2.5981    3.0000    0.0000 C   0  0
    1.2990    3.7500    0.0000 C   0  0
    0.0000    3.0000    0.0000 C   0  0
    0.0000    1.5000    0.0000 C   0  0
   -1.2990    0.7500    0.0000 C   0  0
   -1.2990   -0.7500    0.0000 C   0  0
   -2.5981   -1.5000    0.0000 C   0  0
   -2.5981   -3.0000    0.0000 C   0  0
   -1.2990   -3.7500    0.0000 C   0  0
    0.0000   -3.0000    0.0000 C   0  0
    0.0000   -1.5000    0.0000 C   0  0
    6.4885   -5.2610    0.0000 C   0  0
    7.7876   -6.0110    0.0000 C   0  0
  1  2  2  0
  2  3  1  0
  3  4  1  0
  2  5  1  0
  5  6  1  0
  6  7  1  0
  7  8  1  0
  8  9  1  0
  9 10  2  0
  9 11  1  0
 11 12  1  0
 12 13  2  0
 13 14  1  0
 14 15  2  0
 15 16  1  0
 16 17  2  0
 17 18  1  0
 18 19  2  0
 19 20  1  0
 20 15  1  0
 20 21  2  0
 21 22  1  0
 22 23  2  0
 23 24  1  0
 24 25  2  0
 25 26  1  0
 26 27  2  0
 27 14  1  0
 27 22  1  0
  8 28  1  0
 28 29  1  0
 29  5  1  0
M  END
> <Smiles>
O=C(NO)N1CCN(C(=S)N/N=C/c2c3ccccc3cc3ccccc23)CC1

> <ID>
CHEMBL1169977

> <standard_value>
65000

> <IC50_uM>
65

> <Activity>
No

> <pIC50>
4.187086643

> <BCI>
0

$$$$

  SciTegic03012415362D

 27 29  0  0  0  0            999 V2000
    2.5981   -1.5000    0.0000 N   0  0
    1.2990   -0.7500    0.0000 C   0  0
    1.2990    0.7500    0.0000 C   0  0
    0.0000    1.5000    0.0000 C   0  0
   -1.2990    0.7500    0.0000 C   0  0
   -1.2990   -0.7500    0.0000 C   0  0
    0.0000   -1.5000    0.0000 C   0  0
   -0.0031   -3.0008    0.0000 N   0  0
   -1.3039   -3.7494    0.0000 C   0  0
   -2.6016   -2.9971    0.0000 O   0  0
   -1.3070   -5.2502    0.0000 C   0  0
   -2.6060   -6.0003    0.0000 C   0  0
   -2.6060   -7.5003    0.0000 C   0  0
   -1.3070   -8.2503    0.0000 C   0  0
   -1.3040   -9.7511    0.0000 N   0  0
   -0.0032  -10.4997    0.0000 C   0  0
   -0.0001  -12.0006    0.0000 C   0  0
   -1.2978  -12.7528    0.0000 O   0  0
    1.3007  -12.7491    0.0000 N   0  0
    1.3038  -14.2500    0.0000 C   0  0
    2.6028  -15.0001    0.0000 C   0  0
    2.6028  -16.5001    0.0000 C   0  0
    1.3037  -17.2501    0.0000 C   0  0
    0.0047  -16.5001    0.0000 C   0  0
    0.0047  -15.0001    0.0000 C   0  0
   -0.0080   -7.5003    0.0000 C   0  0
   -0.0079   -6.0003    0.0000 C   0  0
  1  2  1  0
  2  3  2  0
  3  4  1  0
  4  5  2  0
  5  6  1  0
  6  7  2  0
  7  2  1  0
  7  8  1  0
  8  9  1  0
  9 10  2  0
  9 11  1  0
 11 12  2  0
 12 13  1  0
 13 14  2  0
 14 15  1  0
 15 16  1  0
 16 17  1  0
 17 18  2  0
 17 19  1  0
 19 20  1  0
 20 21  2  0
 21 22  1  0
 22 23  2  0
 23 24  1  0
 24 25  2  0
 25 20  1  0
 14 26  1  0
 26 27  2  0
 27 11  1  0
M  END
> <Smiles>
Nc1ccccc1NC(=O)c1ccc(NCC(=O)Nc2ccccc2)cc1

> <ID>
CHEMBL2035386

> <standard_value>
65000

> <IC50_uM>
65

> <Activity>
No

> <pIC50>
4.187086643

> <BCI>
0

$$$$

  SciTegic03012415362D

 29 31  0  0  0  0            999 V2000
    3.6396   -8.4623    0.0000 C   0  0
    4.5250   -7.2514    0.0000 C   0  0
    3.9196   -5.8781    0.0000 O   0  0
    4.8054   -4.6666    0.0000 C   0  0
    6.2966   -4.8284    0.0000 O   0  0
    4.2010   -3.2956    0.0000 C   0  0
    2.7343   -2.9815    0.0000 N   0  0
    2.5987   -1.5004    0.0000 N   0  0
    1.2990   -0.7500    0.0000 C   0  0
    1.2990    0.7500    0.0000 C   0  0
    0.0000    1.5000    0.0000 C   0  0
   -1.2990    0.7500    0.0000 C   0  0
   -1.2990   -0.7500    0.0000 C   0  0
    0.0000   -1.5000    0.0000 C   0  0
    3.9511   -0.8815    0.0000 C   0  0
    4.2567    0.5878    0.0000 C   0  0
    3.2235    1.6679    0.0000 C   0  0
    3.6446    3.1076    0.0000 C   0  0
    5.1019    3.4627    0.0000 C   0  0
    5.5231    4.9024    0.0000 C   0  0
    6.1382    2.3782    0.0000 C   0  0
    5.7171    0.9385    0.0000 C   0  0
    4.9531   -1.9978    0.0000 C   0  0
    6.4437   -1.8466    0.0000 C   0  0
    7.3222   -3.0635    0.0000 N   0  0
    8.8153   -2.9121    0.0000 C   0  0
    9.6933   -4.1283    0.0000 C   0  0
    9.4300   -1.5438    0.0000 C   0  0
   10.3076   -2.7600    0.0000 C   0  0
  1  2  1  0
  2  3  1  0
  3  4  1  0
  4  5  2  0
  4  6  1  0
  6  7  2  0
  7  8  1  0
  8  9  1  0
  9 10  2  0
 10 11  1  0
 11 12  2  0
 12 13  1  0
 13 14  2  0
 14  9  1  0
  8 15  1  0
 15 16  1  0
 16 17  2  0
 17 18  1  0
 18 19  2  0
 19 20  1  0
 19 21  1  0
 21 22  2  0
 22 16  1  0
 15 23  2  0
 23  6  1  0
 23 24  1  0
 24 25  1  0
 25 26  1  0
 26 27  1  0
 26 28  1  0
 26 29  1  0
M  END
> <Smiles>
CCOC(=O)c1nn(-c2ccccc2)c(-c2ccc(C)cc2)c1CNC(C)(C)C

> <ID>
CHEMBL4779924

> <standard_value>
65410

> <IC50_uM>
65.41

> <Activity>
No

> <pIC50>
4.184355851

> <BCI>
0

$$$$

  SciTegic03012415362D

 17 19  0  0  0  0            999 V2000
    6.1903   -5.9992    0.0000 C   0  0
    4.6946   -5.8864    0.0000 C   0  0
    4.0445   -4.5346    0.0000 C   0  0
    2.5536   -4.4230    0.0000 C   0  0
    1.8032   -3.1233    0.0000 C   0  0
    2.4133   -1.7530    0.0000 N   0  0
    1.2990   -0.7500    0.0000 C   0  0
    1.2990    0.7500    0.0000 C   0  0
    0.0000    1.5000    0.0000 C   0  0
   -1.2990    0.7500    0.0000 C   0  0
   -1.2990   -0.7500    0.0000 C   0  0
    0.0000   -1.5000    0.0000 C   0  0
    0.3114   -2.9665    0.0000 S   0  0
    1.7031   -5.6606    0.0000 C   0  0
    2.3532   -7.0124    0.0000 C   0  0
    3.8490   -7.1253    0.0000 C   0  0
    4.4991   -8.4771    0.0000 N   0  0
  1  2  1  0
  2  3  2  0
  3  4  1  0
  4  5  1  0
  5  6  2  0
  6  7  1  0
  7  8  2  0
  8  9  1  0
  9 10  2  0
 10 11  1  0
 11 12  2  0
 12  7  1  0
 12 13  1  0
 13  5  1  0
  4 14  2  0
 14 15  1  0
 15 16  2  0
 16  2  1  0
 16 17  1  0
M  END
> <Smiles>
Cc1cc(-c2nc3ccccc3s2)ccc1N

> <ID>
CHEMBL11825

> <standard_value>
66069.34

> <IC50_uM>
66.06934

> <Activity>
No

> <pIC50>
4.180000032

> <BCI>
0

$$$$

  SciTegic03012415362D

 19 21  0  0  0  0            999 V2000
    5.2059    1.4944    0.0000 C   0  0
    3.9046    0.7483    0.0000 O   0  0
    3.8991   -0.7525    0.0000 C   0  0
    5.1969   -1.5045    0.0000 C   0  0
    5.1945   -3.0045    0.0000 C   0  0
    3.8943   -3.7525    0.0000 C   0  0
    2.5965   -3.0004    0.0000 C   0  0
    2.5987   -1.5004    0.0000 C   0  0
    1.2990   -0.7500    0.0000 C   0  0
    1.2990    0.7500    0.0000 C   0  0
    0.0000    1.5000    0.0000 C   0  0
    0.0000    3.0000    0.0000 O   0  0
   -1.2990    0.7500    0.0000 C   0  0
   -2.5981    1.5000    0.0000 C   0  0
   -3.8971    0.7500    0.0000 C   0  0
   -3.8971   -0.7500    0.0000 C   0  0
   -2.5981   -1.5000    0.0000 N   0  0
   -1.2990   -0.7500    0.0000 C   0  0
    0.0000   -1.5000    0.0000 N   0  0
  1  2  1  0
  2  3  1  0
  3  4  2  0
  4  5  1  0
  5  6  2  0
  6  7  1  0
  7  8  2  0
  8  3  1  0
  8  9  1  0
  9 10  2  0
 10 11  1  0
 11 12  1  0
 11 13  2  0
 13 14  1  0
 14 15  2  0
 15 16  1  0
 16 17  2  0
 17 18  1  0
 18 13  1  0
 18 19  2  0
 19  9  1  0
M  END
> <Smiles>
COc1ccccc1-c1cc(O)c2cccnc2n1

> <ID>
CHEMBL73445

> <standard_value>
67608.3

> <IC50_uM>
67.6083

> <Activity>
No

> <pIC50>
4.169999984

> <BCI>
0

$$$$

  SciTegic03012415362D

 20 23  0  0  0  0            999 V2000
    2.5981   -1.5000    0.0000 N   0  0
    1.2990   -0.7500    0.0000 C   0  0
    1.2990    0.7500    0.0000 C   0  0
    0.0000    1.5000    0.0000 C   0  0
   -1.2990    0.7500    0.0000 C   0  0
   -2.5981    1.5000    0.0000 N   0  0
   -3.8971    0.7500    0.0000 C   0  0
   -3.8971   -0.7500    0.0000 N   0  0
   -2.5981   -1.5000    0.0000 C   0  0
   -2.5981   -3.0000    0.0000 O   0  0
   -1.2990   -0.7500    0.0000 C   0  0
    0.0000   -1.5000    0.0000 C   0  0
   -5.3228   -1.2136    0.0000 C   0  0
   -5.9319   -2.5831    0.0000 C   0  0
   -7.4237   -2.7399    0.0000 C   0  0
   -8.3054   -1.5264    0.0000 C   0  0
   -7.6953   -0.1561    0.0000 C   0  0
   -6.2045    0.0000    0.0000 C   0  0
   -5.3229    1.2135    0.0000 C   0  0
   -5.7863    2.6401    0.0000 O   0  0
  1  2  1  0
  2  3  2  0
  3  4  1  0
  4  5  2  0
  5  6  1  0
  6  7  2  0
  7  8  1  0
  8  9  1  0
  9 10  2  0
  9 11  1  0
 11  5  1  0
 11 12  2  0
 12  2  1  0
  8 13  1  0
 13 14  2  0
 14 15  1  0
 15 16  2  0
 16 17  1  0
 17 18  2  0
 18 13  1  0
 18 19  1  0
 19  7  1  0
 19 20  2  0
M  END
> <Smiles>
Nc1ccc2nc3n(c(=O)c2c1)-c1ccccc1C3=O

> <ID>
CHEMBL309814

> <standard_value>
70000

> <IC50_uM>
70

> <Activity>
No

> <pIC50>
4.15490196

> <BCI>
0

$$$$

  SciTegic03012415362D

 28 30  0  0  0  0            999 V2000
    3.8983   -0.7512    0.0000 C   0  0
    2.5988   -1.5004    0.0000 C   0  0
    2.5983   -3.0004    0.0000 C   0  0
    3.8975   -2.2510    0.0000 C   0  0
    1.2990   -0.7500    0.0000 C   0  0  3  0  0  0
    1.2990    0.7500    0.0000 C   0  0
    0.0000    1.5000    0.0000 C   0  0
   -1.2990    0.7500    0.0000 C   0  0
   -1.2990   -0.7500    0.0000 C   0  0
   -2.7248   -1.2135    0.0000 S   0  0
   -3.6065    0.0000    0.0000 C   0  0
   -5.1047   -0.0031    0.0000 N   0  0
   -5.8532   -1.3040    0.0000 C   0  0
   -5.1009   -2.6017    0.0000 S   0  0
   -7.3541   -1.3071    0.0000 N   0  0
   -8.1026   -2.6079    0.0000 C   0  0
   -7.3503   -3.9056    0.0000 O   0  0
   -9.6034   -2.6111    0.0000 C   0  0
  -10.3534   -3.9101    0.0000 C   0  0
  -11.8534   -3.9102    0.0000 C   0  0
  -12.6035   -2.6112    0.0000 C   0  0
  -11.8536   -1.3121    0.0000 C   0  0
  -10.3536   -1.3120    0.0000 C   0  0
   -2.7248    1.2135    0.0000 C   0  0
   -3.1905    2.6376    0.0000 C   0  0
   -2.1885    3.7539    0.0000 N   0  0
   -4.6581    2.9476    0.0000 O   0  0
    0.0000   -1.5000    0.0000 C   0  0
  1  2  1  0
  2  3  1  0
  2  4  1  0
  5  2  1  4
  5  6  1  0
  6  7  1  0
  7  8  1  0
  8  9  2  0
  9 10  1  0
 10 11  1  0
 11 12  1  0
 12 13  1  0
 13 14  2  0
 13 15  1  0
 15 16  1  0
 16 17  2  0
 16 18  1  0
 18 19  2  0
 19 20  1  0
 20 21  2  0
 21 22  1  0
 22 23  2  0
 23 18  1  0
 11 24  2  0
 24  8  1  0
 24 25  1  0
 25 26  1  0
 25 27  2  0
  9 28  1  0
 28  5  1  0
M  END
> <Smiles>
CC(C)(C)C1CCc2c(sc(NC(=S)NC(=O)c3ccccc3)c2C(N)=O)C1

> <ID>
CHEMBL4784760

> <standard_value>
70180

> <IC50_uM>
70.18

> <Activity>
No

> <pIC50>
4.153786636

> <BCI>
0

$$$$

  SciTegic03012415362D

 28 31  0  0  0  0            999 V2000
    3.8912   -5.2570    0.0000 C   0  0
    3.8933   -3.7570    0.0000 C   0  0
    2.5951   -3.0039    0.0000 O   0  0
    2.5973   -1.5031    0.0000 C   0  0
    3.8976   -0.7553    0.0000 O   0  0
    1.2990   -0.7500    0.0000 C   0  0
    1.2990    0.7500    0.0000 C   0  0
    0.0000    1.5000    0.0000 C   0  0
   -1.2990    0.7500    0.0000 C   0  0
   -2.4133    1.7530    0.0000 N   0  0
   -1.8032    3.1233    0.0000 C   0  0
   -2.4135    4.4923    0.0000 C   0  0
   -1.5318    5.7059    0.0000 C   0  0
   -0.0400    5.5491    0.0000 C   0  0
    0.8446    6.7615    0.0000 O   0  0
    2.3362    6.6026    0.0000 C   0  0
    0.5701    4.1788    0.0000 C   0  0
   -0.3115    2.9665    0.0000 C   0  0
   -1.2990   -0.7500    0.0000 C   0  0
   -2.5987   -1.5004    0.0000 C   0  0
   -3.8991   -0.7525    0.0000 C   0  0
   -5.1969   -1.5046    0.0000 C   0  0
   -5.1945   -3.0046    0.0000 C   0  0
   -6.4915   -3.7597    0.0000 O   0  0
   -6.4870   -5.2597    0.0000 C   0  0
   -3.8943   -3.7525    0.0000 C   0  0
   -2.5964   -3.0004    0.0000 C   0  0
    0.0000   -1.5000    0.0000 N   0  0
  1  2  1  0
  2  3  1  0
  3  4  1  0
  4  5  2  0
  4  6  1  0
  6  7  2  0
  7  8  1  0
  8  9  2  0
  9 10  1  0
 10 11  1  0
 11 12  2  0
 12 13  1  0
 13 14  2  0
 14 15  1  0
 15 16  1  0
 14 17  1  0
 17 18  2  0
 18 11  1  0
 18  8  1  0
  9 19  1  0
 19 20  1  0
 20 21  2  0
 21 22  1  0
 22 23  2  0
 23 24  1  0
 24 25  1  0
 23 26  1  0
 26 27  2  0
 27 20  1  0
 19 28  2  0
 28  6  1  0
M  END
> <Smiles>
CCOC(=O)c1cc2c([nH]c3ccc(OC)cc32)c(-c2ccc(OC)cc2)n1

> <ID>
CHEMBL4462659

> <standard_value>
70790

> <IC50_uM>
70.79

> <Activity>
No

> <pIC50>
4.150028088

> <BCI>
0

$$$$

  SciTegic03012415362D

 53 60  0  0  1  0            999 V2000
    2.5981   -1.5000    0.0000 C   0  0
    1.2990   -0.7500    0.0000 C   0  0
    1.2990    0.7500    0.0000 C   0  0
    2.5981    1.5000    0.0000 C   0  0
    2.5981    3.0000    0.0000 N   0  0
    1.2990    3.7500    0.0000 C   0  0
    0.0000    3.0000    0.0000 C   0  0
    0.0000    1.5000    0.0000 C   0  0
   -1.2990    0.7500    0.0000 C   0  0
   -2.5981    1.5000    0.0000 C   0  0
   -1.2990   -0.7500    0.0000 C   0  0
    0.0000   -1.5000    0.0000 C   0  0
   -0.3114   -2.9665    0.0000 C   0  0
    0.5701   -4.1788    0.0000 C   0  0
   -0.0400   -5.5491    0.0000 C   0  0
   -1.5318   -5.7059    0.0000 C   0  0
   -2.4135   -4.4924    0.0000 C   0  0
   -1.8032   -3.1233    0.0000 C   0  0
   -2.4133   -1.7530    0.0000 N   0  0
   -3.8781   -1.4381    0.0000 C   0  0
   -4.3396   -0.0100    0.0000 C   0  0
   -3.3337    1.1027    0.0000 O   0  0
   -5.8069    0.3054    0.0000 N   0  0
   -6.2683    1.7335    0.0000 C   0  0
   -7.7356    2.0489    0.0000 C   0  0
   -8.1971    3.4770    0.0000 C   0  0
   -9.6644    3.7924    0.0000 C   0  0
  -10.1258    5.2205    0.0000 C   0  0
  -11.5931    5.5359    0.0000 C   0  0
  -12.0546    6.9640    0.0000 N   0  0
  -13.5219    7.2794    0.0000 C   0  0
  -14.5278    6.1666    0.0000 O   0  0
  -13.9833    8.7075    0.0000 C   0  0
  -15.4507    9.0229    0.0000 C   0  0  2  0  0  0
  -15.7578    9.9745    0.0000 O   0  0
  -15.1077    7.6012    0.0000 C   0  0
  -16.4128    6.8618    0.0000 C   0  0
  -17.5240    7.8614    0.0000 C   0  0  1  0  0  0
  -19.0179    7.7263    0.0000 C   0  0  2  0  0  0
  -19.6478    6.3650    0.0000 C   0  0
  -21.1417    6.2299    0.0000 C   0  0
  -22.0057    7.4561    0.0000 C   0  0
  -23.4996    7.3211    0.0000 C   0  0
  -24.3635    8.5473    0.0000 C   0  0
  -25.8574    8.4122    0.0000 O   0  0
  -23.7336    9.9086    0.0000 C   0  0
  -22.2397   10.0437    0.0000 C   0  0
  -21.3757    8.8174    0.0000 C   0  0
  -19.8818    8.9525    0.0000 C   0  0  1  0  0  0
  -19.2519   10.3138    0.0000 C   0  0
  -17.7579   10.4489    0.0000 C   0  0
  -16.8940    9.2227    0.0000 C   0  0  2  0  0  0
  -16.3736   10.0767    0.0000 C   0  0
  1  2  1  0
  2  3  2  0
  3  4  1  0
  4  5  2  0
  5  6  1  0
  6  7  2  0
  7  8  1  0
  8  3  1  0
  8  9  2  0
  9 10  1  0
  9 11  1  0
 11 12  2  0
 12  2  1  0
 12 13  1  0
 13 14  2  0
 14 15  1  0
 15 16  2  0
 16 17  1  0
 17 18  2  0
 18 13  1  0
 18 19  1  0
 19 11  1  0
 19 20  1  0
 20 21  1  0
 21 22  2  0
 21 23  1  0
 23 24  1  0
 24 25  1  0
 25 26  1  0
 26 27  1  0
 27 28  1  0
 28 29  1  0
 29 30  1  0
 30 31  1  0
 31 32  2  0
 31 33  1  0
 33 34  1  0
 34 35  1  1
 34 36  1  0
 36 37  1  0
 38 37  1  1
 38 39  1  0
 39 40  1  6
 40 41  1  0
 41 42  1  0
 42 43  2  0
 43 44  1  0
 44 45  1  0
 44 46  2  0
 46 47  1  0
 47 48  2  0
 48 42  1  0
 48 49  1  0
 49 39  1  0
 49 50  1  1
 50 51  1  0
 51 52  1  0
 52 38  1  0
 52 34  1  0
 52 53  1  1
M  END
> <Smiles>
Cc1c2cnccc2c(C)c2c1c1ccccc1n2CC(=O)NCCCCCCNC(=O)C[C@]1(O)CC[C@H]2[C@@H]3CCc4cc(O)ccc4[C@H]3CC[C@@]21C

> <ID>
CHEMBL1628076

> <standard_value>
72400

> <IC50_uM>
72.4

> <Activity>
No

> <pIC50>
4.140261434

> <BCI>
0

$$$$

  SciTegic03012415362D

 29 31  0  0  0  0            999 V2000
    3.6396   -8.4623    0.0000 C   0  0
    4.5250   -7.2514    0.0000 C   0  0
    3.9196   -5.8781    0.0000 O   0  0
    4.8054   -4.6666    0.0000 C   0  0
    6.2966   -4.8284    0.0000 O   0  0
    4.2010   -3.2956    0.0000 C   0  0
    2.7343   -2.9815    0.0000 N   0  0
    2.5987   -1.5004    0.0000 N   0  0
    1.2990   -0.7500    0.0000 C   0  0
    1.2990    0.7500    0.0000 C   0  0
    0.0000    1.5000    0.0000 C   0  0
   -1.2990    0.7500    0.0000 C   0  0
   -1.2990   -0.7500    0.0000 C   0  0
    0.0000   -1.5000    0.0000 C   0  0
    3.9511   -0.8815    0.0000 C   0  0
    4.2567    0.5878    0.0000 C   0  0
    3.2235    1.6679    0.0000 C   0  0
    3.6446    3.1076    0.0000 C   0  0
    5.1019    3.4627    0.0000 C   0  0
    5.5231    4.9024    0.0000 Cl  0  0
    6.1382    2.3782    0.0000 C   0  0
    5.7171    0.9385    0.0000 C   0  0
    4.9531   -1.9978    0.0000 C   0  0
    6.4437   -1.8466    0.0000 C   0  0
    7.3222   -3.0635    0.0000 N   0  0
    8.8153   -2.9121    0.0000 C   0  0
    9.6933   -4.1283    0.0000 C   0  0
    9.4300   -1.5438    0.0000 C   0  0
   10.3076   -2.7600    0.0000 C   0  0
  1  2  1  0
  2  3  1  0
  3  4  1  0
  4  5  2  0
  4  6  1  0
  6  7  2  0
  7  8  1  0
  8  9  1  0
  9 10  2  0
 10 11  1  0
 11 12  2  0
 12 13  1  0
 13 14  2  0
 14  9  1  0
  8 15  1  0
 15 16  1  0
 16 17  2  0
 17 18  1  0
 18 19  2  0
 19 20  1  0
 19 21  1  0
 21 22  2  0
 22 16  1  0
 15 23  2  0
 23  6  1  0
 23 24  1  0
 24 25  1  0
 25 26  1  0
 26 27  1  0
 26 28  1  0
 26 29  1  0
M  END
> <Smiles>
CCOC(=O)c1nn(-c2ccccc2)c(-c2ccc(Cl)cc2)c1CNC(C)(C)C

> <ID>
CHEMBL4752323

> <standard_value>
73800

> <IC50_uM>
73.8

> <Activity>
No

> <pIC50>
4.131943638

> <BCI>
0

$$$$

  SciTegic03012415362D

 17 18  0  0  0  0            999 V2000
    1.2948   -3.7516    0.0000 S   0  0
    2.5951   -3.0039    0.0000 C   0  0
    3.8933   -3.7570    0.0000 N   0  0
    3.8912   -5.2578    0.0000 N   0  0
    5.1894   -6.0109    0.0000 C   0  0
    5.1873   -7.5117    0.0000 C   0  0
    6.3978   -8.3758    0.0000 C   0  0
    5.9293   -9.8007    0.0000 C   0  0
    4.4293   -9.7955    0.0000 C   0  0
    3.9707   -8.3673    0.0000 S   0  0
    2.5973   -1.5031    0.0000 N   0  0
    1.2990   -0.7500    0.0000 C   0  0
    1.2990    0.7500    0.0000 C   0  0
    0.0000    1.5000    0.0000 C   0  0
   -1.2990    0.7500    0.0000 C   0  0
   -1.2990   -0.7500    0.0000 C   0  0
    0.0000   -1.5000    0.0000 C   0  0
  1  2  2  0
  2  3  1  0
  3  4  1  0
  4  5  2  0
  5  6  1  0
  6  7  2  0
  7  8  1  0
  8  9  2  0
  9 10  1  0
 10  6  1  0
  2 11  1  0
 11 12  1  0
 12 13  2  0
 13 14  1  0
 14 15  2  0
 15 16  1  0
 16 17  2  0
 17 12  1  0
M  END
> <Smiles>
S=C(N/N=C/c1cccs1)Nc1ccccc1

> <ID>
CHEMBL3260043

> <standard_value>
74700

> <IC50_uM>
74.7

> <Activity>
No

> <pIC50>
4.126679398

> <BCI>
0

$$$$

  SciTegic03012415362D

 23 25  0  0  0  0            999 V2000
    0.7077   -8.3622    0.0000 S   0  0
   -0.7600   -8.0526    0.0000 C   0  0
   -1.7622   -9.1698    0.0000 N   0  0
   -1.2966  -10.5966    0.0000 C   0  0
   -2.2988  -11.7138    0.0000 C   0  0
   -1.8332  -13.1406    0.0000 C   0  0
   -2.8332  -14.2587    0.0000 C   0  0
   -2.3650  -15.6837    0.0000 C   0  0
   -0.8968  -15.9908    0.0000 C   0  0
    0.1033  -14.8728    0.0000 C   0  0
   -0.3649  -13.4477    0.0000 C   0  0
   -1.2256   -6.6258    0.0000 N   0  0
   -0.2234   -5.5086    0.0000 N   0  0
   -0.6890   -4.0818    0.0000 C   0  0
    0.3114   -2.9665    0.0000 C   0  0
    1.8032   -3.1233    0.0000 C   0  0
    2.4133   -1.7530    0.0000 N   0  0
    1.2990   -0.7500    0.0000 C   0  0
    1.2990    0.7500    0.0000 C   0  0
    0.0000    1.5000    0.0000 C   0  0
   -1.2990    0.7500    0.0000 C   0  0
   -1.2990   -0.7500    0.0000 C   0  0
    0.0000   -1.5000    0.0000 C   0  0
  1  2  2  0
  2  3  1  0
  3  4  1  0
  4  5  1  0
  5  6  1  0
  6  7  2  0
  7  8  1  0
  8  9  2  0
  9 10  1  0
 10 11  2  0
 11  6  1  0
  2 12  1  0
 12 13  1  0
 13 14  2  0
 14 15  1  0
 15 16  2  0
 16 17  1  0
 17 18  1  0
 18 19  2  0
 19 20  1  0
 20 21  2  0
 21 22  1  0
 22 23  2  0
 23 15  1  0
 23 18  1  0
M  END
> <Smiles>
S=C(NCCc1ccccc1)N/N=C/c1c[nH]c2ccccc12

> <ID>
CHEMBL4162108

> <standard_value>
77900

> <IC50_uM>
77.9

> <Activity>
No

> <pIC50>
4.108462542

> <BCI>
0

$$$$

  SciTegic03012415362D

 28 30  0  0  0  0            999 V2000
    2.5951   -3.0031    0.0000 C   0  0
    2.5973   -1.5031    0.0000 C   0  0
    1.2990   -0.7500    0.0000 C   0  0
    1.2990    0.7500    0.0000 C   0  0
    2.5981    1.5000    0.0000 C   0  0
    0.0000    1.5000    0.0000 N   0  0
   -1.2990    0.7500    0.0000 C   0  0
   -2.6003    1.4977    0.0000 S   0  0
   -3.8990    0.7455    0.0000 C   0  0
   -5.2003    1.4932    0.0000 C   0  0
   -5.2029    2.9932    0.0000 O   0  0
   -6.4990    0.7409    0.0000 N   0  0
   -7.8003    1.4887    0.0000 C   0  0
   -9.1517    0.8676    0.0000 N   0  0
  -10.1554    1.9823    0.0000 C   0  0
   -9.4054    3.2814    0.0000 C   0  0
  -10.0158    4.6524    0.0000 C   0  0
  -11.4869    4.9192    0.0000 C   0  0
  -11.9921    6.3315    0.0000 C   0  0
  -11.0217    7.4753    0.0000 C   0  0
  -11.5243    8.8894    0.0000 O   0  0
  -10.5522   10.0318    0.0000 C   0  0
   -9.5459    7.2067    0.0000 C   0  0
   -9.0406    5.7944    0.0000 C   0  0
   -7.9382    2.9695    0.0000 S   0  0
   -1.2990   -0.7500    0.0000 N   0  0
    0.0000   -1.5000    0.0000 C   0  0
    0.0000   -3.0000    0.0000 O   0  0
  1  2  1  0
  2  3  1  0
  3  4  2  0
  4  5  1  0
  4  6  1  0
  6  7  2  0
  7  8  1  0
  8  9  1  0
  9 10  1  0
 10 11  2  0
 10 12  1  0
 12 13  1  0
 13 14  2  0
 14 15  1  0
 15 16  2  0
 16 17  1  0
 17 18  2  0
 18 19  1  0
 19 20  2  0
 20 21  1  0
 21 22  1  0
 20 23  1  0
 23 24  2  0
 24 17  1  0
 16 25  1  0
 25 13  1  0
  7 26  1  0
 26 27  2  0
 27  3  1  0
 27 28  1  0
M  END
> <Smiles>
CCc1c(C)nc(SCC(=O)Nc2ncc(-c3ccc(OC)cc3)s2)nc1O

> <ID>
CHEMBL4781948

> <standard_value>
79270

> <IC50_uM>
79.27

> <Activity>
No

> <pIC50>
4.100891142

> <BCI>
0

$$$$

  SciTegic03012415362D

 23 24  0  0  1  0            999 V2000
    2.5981   -1.5000    0.0000 C   0  0
    1.2990   -0.7500    0.0000 C   0  0
    1.2990    0.7500    0.0000 C   0  0
    0.0000    1.5000    0.0000 C   0  0
   -1.2990    0.7500    0.0000 C   0  0  2  0  0  0
   -2.5988    1.5004    0.0000 C   0  0
   -3.8976    0.7500    0.0000 C   0  0
   -3.8982    2.2498    0.0000 C   0  0
   -2.5998    3.0012    0.0000 N   0  0
   -3.8995    3.7516    0.0000 C   0  0
   -5.1983    3.0012    0.0000 S   0  0
   -3.9005    5.2525    0.0000 N   0  0
   -5.2002    6.0029    0.0000 N   0  0
   -5.2012    7.5037    0.0000 C   0  0
   -6.5009    8.2541    0.0000 C   0  0
   -7.7985    7.5015    0.0000 C   0  0
   -9.0991    8.2488    0.0000 C   0  0
   -9.1022    9.7488    0.0000 C   0  0
   -7.8046   10.5015    0.0000 C   0  0
   -6.5041    9.7541    0.0000 C   0  0
   -5.2066   10.5068    0.0000 Cl  0  0
   -1.2990   -0.7500    0.0000 C   0  0
    0.0000   -1.5000    0.0000 C   0  0
  1  2  1  0
  2  3  2  0
  3  4  1  0
  4  5  1  0
  5  6  1  1
  6  7  1  0
  6  8  1  0
  6  9  1  0
  9 10  1  0
 10 11  2  0
 10 12  1  0
 12 13  1  0
 13 14  2  0
 14 15  1  0
 15 16  2  0
 16 17  1  0
 17 18  2  0
 18 19  1  0
 19 20  2  0
 20 15  1  0
 20 21  1  0
  5 22  1  0
 22 23  1  0
 23  2  1  0
M  END
> <Smiles>
CC1=CC[C@H](C(C)(C)NC(=S)N/N=C/c2ccccc2Cl)CC1

> <ID>
CHEMBL3235022

> <standard_value>
80600

> <IC50_uM>
80.6

> <Activity>
No

> <pIC50>
4.093664958

> <BCI>
0

$$$$

  SciTegic03012415362D

 28 30  0  0  0  0            999 V2000
    3.6396   -8.4623    0.0000 C   0  0
    4.5250   -7.2514    0.0000 C   0  0
    3.9196   -5.8781    0.0000 O   0  0
    4.8054   -4.6666    0.0000 C   0  0
    6.2966   -4.8284    0.0000 O   0  0
    4.2010   -3.2956    0.0000 C   0  0
    2.7343   -2.9815    0.0000 N   0  0
    2.5987   -1.5004    0.0000 N   0  0
    1.2990   -0.7500    0.0000 C   0  0
    1.2990    0.7500    0.0000 C   0  0
    0.0000    1.5000    0.0000 C   0  0
   -1.2990    0.7500    0.0000 C   0  0
   -1.2990   -0.7500    0.0000 C   0  0
    0.0000   -1.5000    0.0000 C   0  0
    3.9511   -0.8815    0.0000 C   0  0
    4.2567    0.5878    0.0000 C   0  0
    3.2235    1.6679    0.0000 C   0  0
    3.6446    3.1076    0.0000 C   0  0
    5.1019    3.4627    0.0000 C   0  0
    6.1382    2.3782    0.0000 C   0  0
    5.7171    0.9385    0.0000 C   0  0
    4.9531   -1.9978    0.0000 C   0  0
    6.4437   -1.8466    0.0000 C   0  0
    7.3222   -3.0635    0.0000 N   0  0
    8.8153   -2.9121    0.0000 C   0  0
    9.6933   -4.1283    0.0000 C   0  0
    9.4300   -1.5438    0.0000 C   0  0
   10.3076   -2.7600    0.0000 C   0  0
  1  2  1  0
  2  3  1  0
  3  4  1  0
  4  5  2  0
  4  6  1  0
  6  7  2  0
  7  8  1  0
  8  9  1  0
  9 10  2  0
 10 11  1  0
 11 12  2  0
 12 13  1  0
 13 14  2  0
 14  9  1  0
  8 15  1  0
 15 16  1  0
 16 17  2  0
 17 18  1  0
 18 19  2  0
 19 20  1  0
 20 21  2  0
 21 16  1  0
 15 22  2  0
 22  6  1  0
 22 23  1  0
 23 24  1  0
 24 25  1  0
 25 26  1  0
 25 27  1  0
 25 28  1  0
M  END
> <Smiles>
CCOC(=O)c1nn(-c2ccccc2)c(-c2ccccc2)c1CNC(C)(C)C

> <ID>
CHEMBL4757582

> <standard_value>
81510

> <IC50_uM>
81.51

> <Activity>
No

> <pIC50>
4.088789107

> <BCI>
0

$$$$

  SciTegic03012415362D

 17 18  0  0  0  0            999 V2000
    3.8983   -0.7512    0.0000 C   0  0
    2.5988   -1.5004    0.0000 C   0  0
    2.5983   -3.0004    0.0000 C   0  0
    3.8975   -2.2510    0.0000 C   0  0
    1.2990   -0.7500    0.0000 C   0  0  3  0  0  0
    1.2990    0.7500    0.0000 C   0  0
    0.0000    1.5000    0.0000 C   0  0
   -1.2990    0.7500    0.0000 C   0  0
   -1.2990   -0.7500    0.0000 C   0  0
   -2.7248   -1.2135    0.0000 S   0  0
   -3.6065    0.0000    0.0000 C   0  0
   -5.1065    0.0000    0.0000 N   0  0
   -2.7248    1.2135    0.0000 C   0  0
   -3.1905    2.6376    0.0000 C   0  0
   -2.1885    3.7539    0.0000 N   0  0
   -4.6581    2.9476    0.0000 O   0  0
    0.0000   -1.5000    0.0000 C   0  0
  1  2  1  0
  2  3  1  0
  2  4  1  0
  5  2  1  4
  5  6  1  0
  6  7  1  0
  7  8  1  0
  8  9  2  0
  9 10  1  0
 10 11  1  0
 11 12  1  0
 11 13  2  0
 13  8  1  0
 13 14  1  0
 14 15  1  0
 14 16  2  0
  9 17  1  0
 17  5  1  0
M  END
> <Smiles>
CC(C)(C)C1CCc2c(sc(N)c2C(N)=O)C1

> <ID>
CHEMBL1505295

> <standard_value>
83240

> <IC50_uM>
83.24

> <Activity>
No

> <pIC50>
4.079667928

> <BCI>
0

$$$$

  SciTegic03012415362D

 28 30  0  0  0  0            999 V2000
    2.5981   -1.5000    0.0000 C   0  0
    1.2990   -0.7500    0.0000 C   0  0
    1.2990    0.7500    0.0000 C   0  0
    0.0000    1.5000    0.0000 C   0  0
   -1.2990    0.7500    0.0000 C   0  0
   -2.6003    1.4977    0.0000 N   0  0
   -3.8990    0.7455    0.0000 C   0  0
   -3.8964   -0.7545    0.0000 O   0  0
   -5.2003    1.4932    0.0000 C   0  0
   -6.4990    0.7409    0.0000 N   0  0
   -7.8003    1.4887    0.0000 C   0  0
   -9.0994    0.7387    0.0000 C   0  0
  -10.3984    1.4886    0.0000 C   0  0
  -10.3985    2.9886    0.0000 C   0  0
  -11.6967    3.7417    0.0000 C   0  0
  -12.9970    2.9939    0.0000 O   0  0
  -11.6946    5.2425    0.0000 N   0  0
  -12.9929    5.9956    0.0000 C   0  0
  -14.2920    5.2456    0.0000 C   0  0
  -15.5910    5.9956    0.0000 C   0  0
  -15.5910    7.4956    0.0000 C   0  0
  -14.2920    8.2456    0.0000 C   0  0
  -12.9929    7.4956    0.0000 C   0  0
  -11.6939    8.2456    0.0000 N   0  0
   -9.0995    3.7387    0.0000 C   0  0
   -7.8004    2.9887    0.0000 C   0  0
   -1.2990   -0.7500    0.0000 C   0  0
    0.0000   -1.5000    0.0000 C   0  0
  1  2  1  0
  2  3  2  0
  3  4  1  0
  4  5  2  0
  5  6  1  0
  6  7  1  0
  7  8  2  0
  7  9  1  0
  9 10  1  0
 10 11  1  0
 11 12  2  0
 12 13  1  0
 13 14  2  0
 14 15  1  0
 15 16  2  0
 15 17  1  0
 17 18  1  0
 18 19  2  0
 19 20  1  0
 20 21  2  0
 21 22  1  0
 22 23  2  0
 23 18  1  0
 23 24  1  0
 14 25  1  0
 25 26  2  0
 26 11  1  0
  5 27  1  0
 27 28  2  0
 28  2  1  0
M  END
> <Smiles>
Cc1ccc(NC(=O)CNc2ccc(C(=O)Nc3ccccc3N)cc2)cc1

> <ID>
CHEMBL2035395

> <standard_value>
84000

> <IC50_uM>
84

> <Activity>
No

> <pIC50>
4.075720714

> <BCI>
0

$$$$

  SciTegic03012415362D

 23 24  0  0  1  0            999 V2000
    2.5981   -1.5000    0.0000 C   0  0
    1.2990   -0.7500    0.0000 C   0  0
    1.2990    0.7500    0.0000 C   0  0
    0.0000    1.5000    0.0000 C   0  0
   -1.2990    0.7500    0.0000 C   0  0  2  0  0  0
   -2.5988    1.5004    0.0000 C   0  0
   -3.8976    0.7500    0.0000 C   0  0
   -3.8982    2.2498    0.0000 C   0  0
   -2.5998    3.0012    0.0000 N   0  0
   -3.8995    3.7516    0.0000 C   0  0
   -5.1983    3.0012    0.0000 S   0  0
   -3.9005    5.2525    0.0000 N   0  0
   -5.2002    6.0029    0.0000 N   0  0
   -5.2012    7.5037    0.0000 C   0  0
   -6.5009    8.2541    0.0000 C   0  0
   -6.5041    9.7541    0.0000 C   0  0
   -7.8047   10.5015    0.0000 C   0  0
   -9.1022    9.7488    0.0000 C   0  0
  -10.4027   10.4962    0.0000 C   0  0
   -9.0991    8.2488    0.0000 C   0  0
   -7.7985    7.5015    0.0000 C   0  0
   -1.2990   -0.7500    0.0000 C   0  0
    0.0000   -1.5000    0.0000 C   0  0
  1  2  1  0
  2  3  2  0
  3  4  1  0
  4  5  1  0
  5  6  1  1
  6  7  1  0
  6  8  1  0
  6  9  1  0
  9 10  1  0
 10 11  2  0
 10 12  1  0
 12 13  1  0
 13 14  2  0
 14 15  1  0
 15 16  2  0
 16 17  1  0
 17 18  2  0
 18 19  1  0
 18 20  1  0
 20 21  2  0
 21 15  1  0
  5 22  1  0
 22 23  1  0
 23  2  1  0
M  END
> <Smiles>
CC1=CC[C@H](C(C)(C)NC(=S)N/N=C/c2ccc(C)cc2)CC1

> <ID>
CHEMBL3235016

> <standard_value>
89200

> <IC50_uM>
89.2

> <Activity>
No

> <pIC50>
4.049635146

> <BCI>
0

$$$$

  SciTegic03012415362D

 25 28  0  0  0  0            999 V2000
   -7.6282   -9.5935    0.0000 C   0  0
   -6.1327   -9.4784    0.0000 C   0  0
   -5.4846   -8.1256    0.0000 C   0  0
   -3.9890   -8.0104    0.0000 C   0  0
   -3.1453   -9.2443    0.0000 C   0  0
   -1.6445   -9.2482    0.0000 N   0  0
   -0.7588  -10.4589    0.0000 C   0  0
   -1.2177  -11.8870    0.0000 O   0  0
    0.6662   -9.9906    0.0000 C   0  0
    0.6613   -8.4906    0.0000 S   0  0
   -0.7600   -8.0526    0.0000 C   0  0
   -1.2256   -6.6258    0.0000 N   0  0
   -2.6938   -6.3147    0.0000 N   0  0
   -3.1594   -4.8879    0.0000 C   0  0
   -4.6251   -4.5772    0.0000 C   0  0
   -5.7373   -5.5837    0.0000 C   0  0
   -7.0382   -4.8369    0.0000 N   0  0
   -6.7299   -3.3698    0.0000 C   0  0
   -7.6146   -2.1584    0.0000 C   0  0
   -7.0078   -0.7866    0.0000 C   0  0
   -5.5165   -0.6261    0.0000 C   0  0
   -4.6318   -1.8375    0.0000 C   0  0
   -5.2385   -3.2093    0.0000 C   0  0
   -3.7896  -10.6009    0.0000 C   0  0
   -5.2852  -10.7160    0.0000 C   0  0
  1  2  1  0
  2  3  2  0
  3  4  1  0
  4  5  2  0
  5  6  1  0
  6  7  1  0
  7  8  2  0
  7  9  1  0
  9 10  1  0
 10 11  1  0
 11  6  1  0
 11 12  2  0
 12 13  1  0
 13 14  2  0
 14 15  1  0
 15 16  2  0
 16 17  1  0
 17 18  1  0
 18 19  2  0
 19 20  1  0
 20 21  2  0
 21 22  1  0
 22 23  2  0
 23 15  1  0
 23 18  1  0
  5 24  1  0
 24 25  2  0
 25  2  1  0
M  END
> <Smiles>
Cc1ccc(N2C(=O)CS/C2=N/N=C/c2c[nH]c3ccccc23)cc1

> <ID>
CHEMBL4167513

> <standard_value>
90160

> <IC50_uM>
90.16

> <Activity>
No

> <pIC50>
4.044986097

> <BCI>
0

$$$$

  SciTegic03012415362D

 21 23  0  0  0  0            999 V2000
    6.4870   -5.2597    0.0000 C   0  0
    6.4915   -3.7597    0.0000 O   0  0
    5.1945   -3.0045    0.0000 C   0  0
    5.1969   -1.5045    0.0000 C   0  0
    3.8991   -0.7525    0.0000 C   0  0
    2.5987   -1.5004    0.0000 C   0  0
    1.2990   -0.7500    0.0000 C   0  0
    1.2990    0.7500    0.0000 C   0  0
    0.0000    1.5000    0.0000 C   0  0
    0.0000    3.0000    0.0000 O   0  0
   -1.2990    0.7500    0.0000 C   0  0
   -2.5981    1.5000    0.0000 C   0  0
   -2.5981    3.0000    0.0000 C   0  0
   -3.8971    0.7500    0.0000 C   0  0
   -3.8971   -0.7500    0.0000 C   0  0
   -5.1961   -1.5000    0.0000 C   0  0
   -2.5981   -1.5000    0.0000 N   0  0
   -1.2990   -0.7500    0.0000 C   0  0
    0.0000   -1.5000    0.0000 N   0  0
    2.5965   -3.0004    0.0000 C   0  0
    3.8943   -3.7525    0.0000 C   0  0
  1  2  1  0
  2  3  1  0
  3  4  2  0
  4  5  1  0
  5  6  2  0
  6  7  1  0
  7  8  2  0
  8  9  1  0
  9 10  1  0
  9 11  2  0
 11 12  1  0
 12 13  1  0
 12 14  2  0
 14 15  1  0
 15 16  1  0
 15 17  2  0
 17 18  1  0
 18 11  1  0
 18 19  2  0
 19  7  1  0
  6 20  1  0
 20 21  2  0
 21  3  1  0
M  END
> <Smiles>
COc1ccc(-c2cc(O)c3c(C)cc(C)nc3n2)cc1

> <ID>
CHEMBL309024

> <standard_value>
91201.08

> <IC50_uM>
91.20108

> <Activity>
No

> <pIC50>
4.040000019

> <BCI>
0

$$$$

  SciTegic03012415362D

 24 26  0  0  0  0            999 V2000
    1.0255   -3.6140    0.0000 N   0  0
    1.6332   -2.2426    0.0000 C   0  0
    3.1247   -2.0836    0.0000 O   0  0
    0.7500   -1.0323    0.0000 C   0  0
    1.2135    0.3943    0.0000 C   0  0
    2.6375    0.8603    0.0000 N   0  0
    2.9474    2.3287    0.0000 C   0  0
    1.8309    3.3305    0.0000 S   0  0
    4.3738    2.7955    0.0000 N   0  0
    4.6837    4.2640    0.0000 C   0  0
    3.5672    5.2657    0.0000 O   0  0
    6.1101    4.7307    0.0000 C   0  0
    7.2250    3.7271    0.0000 C   0  0
    8.6515    4.1907    0.0000 C   0  0
    8.9633    5.6579    0.0000 C   0  0
    7.8486    6.6616    0.0000 C   0  0
    6.4220    6.1980    0.0000 C   0  0
    5.3073    7.2016    0.0000 Cl  0  0
    0.0000    1.2760    0.0000 S   0  0
   -1.2135    0.3943    0.0000 C   0  0
   -0.7500   -1.0323    0.0000 C   0  0
   -1.9615   -1.9133    0.0000 C   0  0
   -3.1750   -1.0316    0.0000 C   0  0
   -2.7115    0.3949    0.0000 C   0  0
  1  2  1  0
  2  3  2  0
  2  4  1  0
  4  5  2  0
  5  6  1  0
  6  7  1  0
  7  8  2  0
  7  9  1  0
  9 10  1  0
 10 11  2  0
 10 12  1  0
 12 13  2  0
 13 14  1  0
 14 15  2  0
 15 16  1  0
 16 17  2  0
 17 12  1  0
 17 18  1  0
  5 19  1  0
 19 20  1  0
 20 21  2  0
 21  4  1  0
 21 22  1  0
 22 23  1  0
 23 24  1  0
 24 20  1  0
M  END
> <Smiles>
NC(=O)c1c(NC(=S)NC(=O)c2ccccc2Cl)sc2c1CCC2

> <ID>
CHEMBL4764417

> <standard_value>
94600

> <IC50_uM>
94.6

> <Activity>
No

> <pIC50>
4.024108864

> <BCI>
0

$$$$

  SciTegic03012415362D

 19 22  0  0  0  0            999 V2000
    3.8805   -1.4410    0.0000 O   0  0
    2.4133   -1.7530    0.0000 C   0  0
    1.2990   -0.7500    0.0000 C   0  0
    1.2990    0.7500    0.0000 C   0  0
    0.0000    1.5000    0.0000 C   0  0
   -1.2990    0.7500    0.0000 C   0  0
   -1.2990   -0.7500    0.0000 C   0  0
    0.0000   -1.5000    0.0000 C   0  0
    0.3114   -2.9665    0.0000 N   0  0
    1.8032   -3.1233    0.0000 C   0  0
    2.4135   -4.4923    0.0000 N   0  0
    1.5318   -5.7059    0.0000 C   0  0
    2.1419   -7.0762    0.0000 C   0  0
    1.2602   -8.2897    0.0000 C   0  0
   -0.2316   -8.1329    0.0000 C   0  0
   -0.8417   -6.7626    0.0000 C   0  0
    0.0400   -5.5491    0.0000 C   0  0
   -0.5701   -4.1788    0.0000 C   0  0
   -2.0618   -4.0217    0.0000 O   0  0
  1  2  2  0
  2  3  1  0
  3  4  2  0
  4  5  1  0
  5  6  2  0
  6  7  1  0
  7  8  2  0
  8  3  1  0
  8  9  1  0
  9 10  1  0
 10  2  1  0
 10 11  2  0
 11 12  1  0
 12 13  2  0
 13 14  1  0
 14 15  2  0
 15 16  1  0
 16 17  2  0
 17 12  1  0
 17 18  1  0
 18  9  1  0
 18 19  2  0
M  END
> <Smiles>
O=C1c2ccccc2-n2c1nc1ccccc1c2=O

> <ID>
CHEMBL306946

> <standard_value>
100000

> <IC50_uM>
100

> <Activity>
No

> <pIC50>
4

> <BCI>
0

$$$$

  SciTegic03012415362D

 34 37  0  0  0  0            999 V2000
    6.4773    3.7652    0.0000 O   0  0
    7.7802    3.0220    0.0000 S   0  0
    7.7722    4.5219    0.0000 O   0  0
    9.0758    3.7795    0.0000 C   0  0
    9.0685    5.2803    0.0000 C   0  0
   10.3641    6.0379    0.0000 C   0  0
   11.6658    5.2925    0.0000 C   0  0
   12.9622    6.0470    0.0000 C   0  0
   12.9570    7.5470    0.0000 C   0  0
   14.2541    8.3019    0.0000 C   0  0
   15.5563    7.5573    0.0000 F   0  0
   14.2484    9.8019    0.0000 F   0  0
   15.5502    9.0571    0.0000 F   0  0
   11.6554    8.2925    0.0000 C   0  0
   10.3589    7.5379    0.0000 C   0  0
    9.0573    8.2834    0.0000 F   0  0
    7.7876    1.5211    0.0000 C   0  0
    6.4920    0.7636    0.0000 C   0  0
    6.4972   -0.7364    0.0000 C   0  0
    5.2007   -1.4909    0.0000 C   0  0
    3.8990   -0.7455    0.0000 C   0  0
    2.6003   -1.4977    0.0000 N   0  0
    1.2990   -0.7500    0.0000 C   0  0
    1.2990    0.7500    0.0000 N   0  0
    0.0000    1.5000    0.0000 C   0  0
   -1.2990    0.7500    0.0000 N   0  0
   -1.2990   -0.7500    0.0000 C   0  0
   -2.5981   -1.5000    0.0000 C   0  0
   -2.5981   -3.0000    0.0000 C   0  0
   -1.2990   -3.7500    0.0000 C   0  0
    0.0000   -3.0000    0.0000 C   0  0
    0.0000   -1.5000    0.0000 C   0  0
    3.8939    0.7546    0.0000 C   0  0
    5.1903    1.5091    0.0000 C   0  0
  1  2  2  0
  2  3  2  0
  2  4  1  0
  4  5  2  0
  5  6  1  0
  6  7  2  0
  7  8  1  0
  8  9  2  0
  9 10  1  0
 10 11  1  0
 10 12  1  0
 10 13  1  0
  9 14  1  0
 14 15  2  0
 15  6  1  0
 15 16  1  0
  2 17  1  0
 17 18  1  0
 18 19  2  0
 19 20  1  0
 20 21  2  0
 21 22  1  0
 22 23  1  0
 23 24  2  0
 24 25  1  0
 25 26  2  0
 26 27  1  0
 27 28  2  0
 28 29  1  0
 29 30  2  0
 30 31  1  0
 31 32  2  0
 32 23  1  0
 32 27  1  0
 21 33  1  0
 33 34  2  0
 34 18  1  0
M  END
> <Smiles>
O=S(=O)(/C=C/c1ccc(C(F)(F)F)cc1F)Cc1ccc(Nc2ncnc3ccccc23)cc1

> <ID>
CHEMBL163077

> <standard_value>
100000

> <IC50_uM>
100

> <Activity>
No

> <pIC50>
4

> <BCI>
0

$$$$

  SciTegic03012415362D

 31 34  0  0  0  0            999 V2000
    6.4773    3.7652    0.0000 O   0  0
    7.7802    3.0220    0.0000 S   0  0
    7.7722    4.5219    0.0000 O   0  0
    9.0758    3.7795    0.0000 C   0  0
    9.0685    5.2803    0.0000 C   0  0
   10.3641    6.0379    0.0000 C   0  0
   11.6658    5.2925    0.0000 C   0  0
   12.9622    6.0470    0.0000 C   0  0
   12.9570    7.5470    0.0000 C   0  0
   14.2534    8.3015    0.0000 F   0  0
   11.6554    8.2925    0.0000 C   0  0
   10.3589    7.5379    0.0000 C   0  0
    9.0573    8.2834    0.0000 Cl  0  0
    7.7876    1.5211    0.0000 C   0  0
    6.4920    0.7636    0.0000 C   0  0
    6.4972   -0.7364    0.0000 C   0  0
    5.2007   -1.4909    0.0000 C   0  0
    3.8990   -0.7455    0.0000 C   0  0
    2.6003   -1.4977    0.0000 N   0  0
    1.2990   -0.7500    0.0000 C   0  0
    1.2990    0.7500    0.0000 N   0  0
    0.0000    1.5000    0.0000 C   0  0
   -1.2990    0.7500    0.0000 N   0  0
   -1.2990   -0.7500    0.0000 C   0  0
   -2.5981   -1.5000    0.0000 C   0  0
   -2.5981   -3.0000    0.0000 C   0  0
   -1.2990   -3.7500    0.0000 C   0  0
    0.0000   -3.0000    0.0000 C   0  0
    0.0000   -1.5000    0.0000 C   0  0
    3.8939    0.7546    0.0000 C   0  0
    5.1903    1.5091    0.0000 C   0  0
  1  2  2  0
  2  3  2  0
  2  4  1  0
  4  5  2  0
  5  6  1  0
  6  7  2  0
  7  8  1  0
  8  9  2  0
  9 10  1  0
  9 11  1  0
 11 12  2  0
 12  6  1  0
 12 13  1  0
  2 14  1  0
 14 15  1  0
 15 16  2  0
 16 17  1  0
 17 18  2  0
 18 19  1  0
 19 20  1  0
 20 21  2  0
 21 22  1  0
 22 23  2  0
 23 24  1  0
 24 25  2  0
 25 26  1  0
 26 27  2  0
 27 28  1  0
 28 29  2  0
 29 20  1  0
 29 24  1  0
 18 30  1  0
 30 31  2  0
 31 15  1  0
M  END
> <Smiles>
O=S(=O)(/C=C/c1ccc(F)cc1Cl)Cc1ccc(Nc2ncnc3ccccc23)cc1

> <ID>
CHEMBL351984

> <standard_value>
100000

> <IC50_uM>
100

> <Activity>
No

> <pIC50>
4

> <BCI>
0

$$$$

  SciTegic03012415362D

 26 26  0  0  0  0            999 V2000
    1.8177  -11.3743    0.0000 C   0  0
    2.4298  -10.0049    0.0000 C   0  0
    1.5502   -8.7888    0.0000 O   0  0
    2.1626   -7.4186    0.0000 P   0  0
    3.6547   -7.2645    0.0000 O   0  0
    3.0615   -8.6567    0.0000 O   0  0
    4.5542   -8.5013    0.0000 C   0  0
    5.4355   -9.7150    0.0000 C   0  0
    1.2830   -6.2026    0.0000 C   0  0  3  0  0  0
    1.8954   -4.8324    0.0000 N   0  0
    1.0157   -3.6164    0.0000 O   0  0
    1.6281   -2.2462    0.0000 C   0  0  3  0  0  0
    3.1202   -2.0921    0.0000 C   0  0
    0.7500   -1.0323    0.0000 C   0  0
    1.2135    0.3943    0.0000 C   0  0
    0.0000    1.2760    0.0000 N   0  0
   -1.2135    0.3943    0.0000 C   0  0
   -0.7500   -1.0323    0.0000 N   0  0
    3.3879   -4.6751    0.0000 C   0  0
    3.9985   -3.3050    0.0000 C   0  0
    4.8797   -4.5186    0.0000 C   0  0
    4.2696   -5.8886    0.0000 C   0  0
   -0.2102   -6.3538    0.0000 C   0  0
   -1.0881   -5.1375    0.0000 C   0  0
   -1.7025   -6.5056    0.0000 C   0  0
   -0.8251   -7.7220    0.0000 C   0  0
  1  2  1  0
  2  3  1  0
  3  4  1  0
  4  5  2  0
  4  6  1  0
  6  7  1  0
  7  8  1  0
  4  9  1  0
  9 10  1  4
 10 11  1  0
 11 12  1  0
 12 13  1  4
 12 14  1  0
 14 15  2  0
 15 16  1  0
 16 17  1  0
 17 18  2  0
 18 14  1  0
 10 19  1  0
 19 20  1  0
 19 21  1  0
 19 22  1  0
  9 23  1  0
 23 24  1  0
 23 25  1  0
 23 26  1  0
M  END
> <Smiles>
CCOP(=O)(OCC)C(N(OC(C)c1c[nH]cn1)C(C)(C)C)C(C)(C)C

> <ID>
CHEMBL4450150

> <standard_value>
20000

> <IC50_uM>
20

> <Activity>
No

> <pIC50>
4.698970004

> <BCI>
0

$$$$

  SciTegic03012415362D

 24 24  0  0  0  0            999 V2000
    5.1887   -6.0105    0.0000 C   0  0
    3.8912   -5.2578    0.0000 O   0  0
    3.8933   -3.7570    0.0000 C   0  0
    4.7602   -3.2585    0.0000 O   0  0
    2.5951   -3.0039    0.0000 C   0  0
    2.5973   -1.5031    0.0000 N   0  0
    3.8999   -0.7576    0.0000 C   0  0
    3.9051    0.7424    0.0000 O   0  0
    5.1972   -1.5121    0.0000 C   0  0
    6.4991   -0.7671    0.0000 C   0  0
    5.1937   -2.5121    0.0000 C   0  0
    1.2990   -0.7500    0.0000 C   0  0
    1.2990    0.7500    0.0000 C   0  0
    0.0000    1.5000    0.0000 C   0  0
   -1.2990    0.7500    0.0000 C   0  0
   -2.5973    1.5031    0.0000 N   0  3
   -2.5951    3.0031    0.0000 O   0  0
   -3.8976    0.7553    0.0000 O   0  5
   -1.2990   -0.7500    0.0000 C   0  0
   -2.5988   -1.5004    0.0000 C   0  0
   -3.8983   -0.7513    0.0000 F   0  0
   -2.5983   -3.0004    0.0000 F   0  0
   -3.8975   -2.2510    0.0000 F   0  0
    0.0000   -1.5000    0.0000 C   0  0
  1  2  1  0
  2  3  1  0
  3  4  2  0
  3  5  1  0
  5  6  1  0
  6  7  1  0
  7  8  2  0
  7  9  1  0
  9 10  1  0
  9 11  1  0
  6 12  1  0
 12 13  2  0
 13 14  1  0
 14 15  2  0
 15 16  1  0
 16 17  2  0
 16 18  1  0
 15 19  1  0
 19 20  1  0
 20 21  1  0
 20 22  1  0
 20 23  1  0
 19 24  2  0
 24 12  1  0
M  CHG  2  16   1  18  -1
M  END
> <Smiles>
COC(=O)CN(C(=O)C(C)C)c1ccc([N+](=O)[O-])c(C(F)(F)F)c1

> <ID>
CHEMBL4763885

> <standard_value>
20110

> <IC50_uM>
20.11

> <Activity>
No

> <pIC50>
4.696587929

> <BCI>
0

$$$$

  SciTegic03012415362D

 22 26  0  0  1  0            999 V2000
    2.5981    0.0000    0.0000 C   0  0
    1.2990   -0.7500    0.0000 C   0  0  2  0  0  0
    1.2990    0.7500    0.0000 C   0  0
    2.5981    1.5000    0.0000 C   0  0
    2.5981    3.0000    0.0000 C   0  0
    1.2990    3.7500    0.0000 C   0  0
    0.0000    3.0000    0.0000 C   0  0
    0.0000    1.5000    0.0000 C   0  0  2  0  0  0
   -1.2990    2.2500    0.0000 O   0  0
   -1.2990    0.7500    0.0000 O   0  0
   -1.2990   -0.7500    0.0000 O   0  0
    0.0000   -1.5000    0.0000 C   0  0  2  0  0  0
    0.0000   -3.0000    0.0000 C   0  0
    1.2991   -3.7500    0.0000 C   0  0
    2.5981   -3.0000    0.0000 C   0  0
    3.7124   -4.0030    0.0000 C   0  0
    3.1023   -5.3733    0.0000 O   0  0
    1.6105   -5.2165    0.0000 C   0  0
    0.6067   -6.3311    0.0000 O   0  0
    2.5981   -1.5000    0.0000 C   0  0  2  0  0  0
    3.8971   -0.7500    0.0000 C   0  0
    3.8971    0.7500    0.0000 C   0  0
  2  1  1  1
  2  3  1  0
  3  4  2  0
  4  5  1  0
  5  6  1  0
  6  7  2  0
  7  8  1  0
  8  3  1  0
  8  9  1  1
  8 10  1  0
 10 11  1  0
 12 11  1  1
 12  2  1  0
 12 13  1  0
 13 14  1  0
 14 15  2  0
 15 16  1  0
 16 17  1  0
 17 18  1  0
 18 14  1  0
 18 19  2  0
 15 20  1  0
 20  2  1  0
 20 21  1  1
 21 22  1  0
 22  4  1  0
M  END
> <Smiles>
C[C@]12C3=C4CC=C[C@@]3(O)OO[C@@H]1CC1=C(COC1=O)[C@@H]2CC4

> <ID>
CHEMBL3799720

> <standard_value>
20210

> <IC50_uM>
20.21

> <Activity>
No

> <pIC50>
4.694433686

> <BCI>
0

$$$$

  SciTegic03012415362D

 28 31  0  0  0  0            999 V2000
    0.7077   -8.3622    0.0000 O   0  0
   -0.7600   -8.0526    0.0000 C   0  0
   -1.2256   -6.6258    0.0000 N   0  0
   -0.2234   -5.5086    0.0000 C   0  0
   -0.6890   -4.0818    0.0000 C   0  0
    0.3114   -2.9665    0.0000 C   0  0
    1.8032   -3.1233    0.0000 C   0  0
    2.4133   -1.7530    0.0000 N   0  0
    1.2990   -0.7500    0.0000 C   0  0
    1.2990    0.7500    0.0000 C   0  0
    0.0000    1.5000    0.0000 C   0  0
   -1.2990    0.7500    0.0000 C   0  0
   -1.2990   -0.7500    0.0000 C   0  0
    0.0000   -1.5000    0.0000 C   0  0
   -1.7622   -9.1698    0.0000 C   0  0
   -3.2294   -8.8578    0.0000 C   0  0
   -4.2333   -9.9723    0.0000 C   0  0
   -3.7700  -11.3990    0.0000 C   0  0
   -2.3028  -11.7111    0.0000 C   0  0
   -1.2990  -10.5965    0.0000 C   0  0
    0.1684  -10.9119    0.0000 N   0  0
    0.6299  -12.3400    0.0000 C   0  0
    2.0959  -12.6573    0.0000 C   0  0
    2.5543  -14.0856    0.0000 C   0  0
    1.5465  -15.1966    0.0000 C   0  0
    0.0804  -14.8794    0.0000 C   0  0
   -0.9273  -15.9904    0.0000 F   0  0
   -0.3779  -13.4511    0.0000 C   0  0
  1  2  2  0
  2  3  1  0
  3  4  1  0
  4  5  1  0
  5  6  1  0
  6  7  2  0
  7  8  1  0
  8  9  1  0
  9 10  2  0
 10 11  1  0
 11 12  2  0
 12 13  1  0
 13 14  2  0
 14  6  1  0
 14  9  1  0
  2 15  1  0
 15 16  2  0
 16 17  1  0
 17 18  2  0
 18 19  1  0
 19 20  2  0
 20 15  1  0
 20 21  1  0
 21 22  1  0
 22 23  2  0
 23 24  1  0
 24 25  2  0
 25 26  1  0
 26 27  1  0
 26 28  2  0
 28 22  1  0
M  END
> <Smiles>
O=C(NCCc1c[nH]c2ccccc12)c1ccccc1Nc1cccc(F)c1

> <ID>
CHEMBL4872034

> <standard_value>
20370

> <IC50_uM>
20.37

> <Activity>
No

> <pIC50>
4.691008971

> <BCI>
0

$$$$

  SciTegic03012415362D

 41 45  0  0  0  0            999 V2000
   19.1799   -8.3901    0.0000 C   0  0
   18.3019   -7.1739    0.0000 C   0  0
   16.8087   -7.3253    0.0000 C   0  0
   15.9303   -6.1084    0.0000 C   0  0
   14.4371   -6.2598    0.0000 C   0  0
   13.5586   -5.0430    0.0000 C   0  0
   12.0654   -5.1944    0.0000 C   0  0
   11.1870   -3.9775    0.0000 C   0  0
    9.6938   -4.1290    0.0000 C   0  0
    8.8153   -2.9121    0.0000 C   0  0
    7.3221   -3.0635    0.0000 C   0  0
    6.4437   -1.8466    0.0000 C   0  0
    4.9531   -1.9978    0.0000 C   0  0
    3.9511   -0.8815    0.0000 C   0  0
    2.5987   -1.5004    0.0000 N   0  0
    1.2990   -0.7500    0.0000 C   0  0
    1.2990    0.7500    0.0000 C   0  0
    0.0000    1.5000    0.0000 C   0  0
   -1.2990    0.7500    0.0000 C   0  0
   -2.5987    1.5004    0.0000 C   0  0
   -2.6012    3.0004    0.0000 C   0  0
   -3.9015    3.7484    0.0000 C   0  0
   -3.9038    5.2491    0.0000 C   0  0
   -2.6072    6.0033    0.0000 C   0  0
   -2.6120    7.5033    0.0000 C   0  0
   -3.9134    8.2492    0.0000 C   0  0
   -5.2100    7.4951    0.0000 C   0  0
   -5.2053    5.9951    0.0000 N   0  0
   -5.1993    2.9963    0.0000 N   0  0
   -5.1969    1.4963    0.0000 C   0  0
   -6.4954    0.7438    0.0000 C   0  0
   -7.7969    1.4897    0.0000 C   0  0
   -9.0936    0.7355    0.0000 C   0  0
   -9.0888   -0.7645    0.0000 C   0  0
   -7.7874   -1.5103    0.0000 C   0  0
   -6.4907   -0.7562    0.0000 N   0  0
   -3.8967    0.7484    0.0000 C   0  0
   -1.2990   -0.7500    0.0000 C   0  0
    0.0000   -1.5000    0.0000 C   0  0
    2.7343   -2.9815    0.0000 N   0  0
    4.2010   -3.2956    0.0000 N   0  0
  1  2  1  0
  2  3  1  0
  3  4  1  0
  4  5  1  0
  5  6  1  0
  6  7  1  0
  7  8  1  0
  8  9  1  0
  9 10  1  0
 10 11  1  0
 11 12  1  0
 12 13  1  0
 13 14  2  0
 14 15  1  0
 15 16  1  0
 16 17  2  0
 17 18  1  0
 18 19  2  0
 19 20  1  0
 20 21  2  0
 21 22  1  0
 22 23  1  0
 23 24  2  0
 24 25  1  0
 25 26  2  0
 26 27  1  0
 27 28  2  0
 28 23  1  0
 22 29  2  0
 29 30  1  0
 30 31  1  0
 31 32  2  0
 32 33  1  0
 33 34  2  0
 34 35  1  0
 35 36  2  0
 36 31  1  0
 30 37  2  0
 37 20  1  0
 19 38  1  0
 38 39  2  0
 39 16  1  0
 15 40  1  0
 40 41  2  0
 41 13  1  0
M  END
> <Smiles>
CCCCCCCCCCCCc1cn(-c2ccc(-c3cc(-c4ccccn4)nc(-c4ccccn4)c3)cc2)nn1

> <ID>
CHEMBL4776484

> <standard_value>
20380

> <IC50_uM>
20.38

> <Activity>
No

> <pIC50>
4.69079582

> <BCI>
0

$$$$

  SciTegic03012415362D

 25 27  0  0  0  0            999 V2000
    2.5951   -3.0031    0.0000 C   0  0
    2.5973   -1.5031    0.0000 O   0  0
    1.2990   -0.7500    0.0000 C   0  0
    1.2990    0.7500    0.0000 C   0  0
    0.0000    1.5000    0.0000 C   0  0
   -1.2990    0.7500    0.0000 C   0  0
   -1.2990   -0.7500    0.0000 C   0  0
    0.0000   -1.5000    0.0000 C   0  0
   -2.7248   -1.2135    0.0000 C   0  0
   -3.1904   -2.6376    0.0000 C   0  0
   -4.6588   -2.9478    0.0000 C   0  0
   -5.1250   -4.3735    0.0000 O   0  0
   -5.6608   -1.8315    0.0000 O   0  0
   -3.6065    0.0000    0.0000 C   0  0
   -5.1065    0.0000    0.0000 C   0  0
   -2.7248    1.2135    0.0000 N   0  0
   -3.1905    2.6376    0.0000 C   0  0
   -2.1885    3.7539    0.0000 O   0  0
   -4.6589    2.9478    0.0000 C   0  0
   -5.1272    4.3728    0.0000 C   0  0
   -6.5954    4.6799    0.0000 C   0  0
   -7.5954    3.5619    0.0000 C   0  0
   -9.0637    3.8689    0.0000 Cl  0  0
   -7.1272    2.1368    0.0000 C   0  0
   -5.6590    1.8298    0.0000 C   0  0
  1  2  1  0
  2  3  1  0
  3  4  2  0
  4  5  1  0
  5  6  2  0
  6  7  1  0
  7  8  2  0
  8  3  1  0
  7  9  1  0
  9 10  1  0
 10 11  1  0
 11 12  2  0
 11 13  1  0
  9 14  2  0
 14 15  1  0
 14 16  1  0
 16  6  1  0
 16 17  1  0
 17 18  2  0
 17 19  1  0
 19 20  2  0
 20 21  1  0
 21 22  2  0
 22 23  1  0
 22 24  1  0
 24 25  2  0
 25 19  1  0
M  END
> <Smiles>
COc1ccc2c(c1)c(CC(=O)O)c(C)n2C(=O)c1ccc(Cl)cc1

> <ID>
CHEMBL6

> <standard_value>
20450

> <IC50_uM>
20.45

> <Activity>
No

> <pIC50>
4.689306688

> <BCI>
0

$$$$

  SciTegic03012415362D

 29 32  0  0  0  0            999 V2000
    2.6719    0.7452    0.0000 C   0  0
    1.6852   -0.3846    0.0000 C   0  0
    2.0841   -1.8306    0.0000 C   0  0
    1.3514    1.0778    0.0000 C   0  0
    0.0000    1.7286    0.0000 N   0  0
   -1.3515    1.0777    0.0000 C   0  0
   -2.5242    2.0130    0.0000 O   0  0
   -1.6852   -0.3847    0.0000 C   0  0
   -3.0899   -0.9120    0.0000 C   0  0
   -3.0226   -2.4105    0.0000 C   0  0
   -4.1959   -3.3462    0.0000 C   0  0
   -5.6245   -2.9054    0.0000 C   0  0
   -6.7236   -3.9262    0.0000 C   0  0
   -6.3890   -5.3885    0.0000 C   0  0
   -7.4866   -6.4121    0.0000 N   0  3
   -7.1499   -7.8739    0.0000 O   0  0
   -8.9209   -5.9732    0.0000 O   0  5
   -4.9554   -5.8298    0.0000 C   0  0
   -3.8564   -4.8090    0.0000 C   0  0
   -1.5767   -2.8095    0.0000 N   0  0
   -1.0494   -4.2146    0.0000 C   0  0
   -1.9101   -5.4370    0.0000 C   0  0
   -1.2789   -6.7977    0.0000 C   0  0
    0.2151   -6.9315    0.0000 C   0  0
    1.0779   -5.7045    0.0000 C   0  0
    2.5720   -5.8383    0.0000 Cl  0  0
    0.4468   -4.3438    0.0000 C   0  0
   -0.7500   -1.5574    0.0000 C   0  0
    0.7500   -1.5574    0.0000 C   0  0
  1  2  1  0
  2  3  1  0
  2  4  1  0
  4  5  1  0
  5  6  1  0
  6  7  2  0
  6  8  1  0
  8  9  1  0
  9 10  2  0
 10 11  1  0
 11 12  2  0
 12 13  1  0
 13 14  2  0
 14 15  1  0
 15 16  2  0
 15 17  1  0
 14 18  1  0
 18 19  2  0
 19 11  1  0
 10 20  1  0
 20 21  1  0
 21 22  2  0
 22 23  1  0
 23 24  2  0
 24 25  1  0
 25 26  1  0
 25 27  2  0
 27 21  1  0
 20 28  1  0
 28  8  2  0
 28 29  1  0
 29  2  1  0
M  CHG  2  15   1  17  -1
M  END
> <Smiles>
CC1(C)CNC(=O)c2cc(-c3ccc([N+](=O)[O-])cc3)n(-c3cccc(Cl)c3)c2C1

> <ID>
CHEMBL239266

> <standard_value>
20700

> <IC50_uM>
20.7

> <Activity>
No

> <pIC50>
4.684029655

> <BCI>
0

$$$$

  SciTegic03012415362D

 28 31  0  0  0  0            999 V2000
    0.7077   -8.3622    0.0000 O   0  0
   -0.7600   -8.0526    0.0000 C   0  0
   -1.2256   -6.6258    0.0000 N   0  0
   -0.2234   -5.5086    0.0000 C   0  0
   -0.6890   -4.0818    0.0000 C   0  0
    0.3114   -2.9665    0.0000 C   0  0
    1.8032   -3.1233    0.0000 C   0  0
    2.4133   -1.7530    0.0000 N   0  0
    1.2990   -0.7500    0.0000 C   0  0
    1.2990    0.7500    0.0000 C   0  0
    0.0000    1.5000    0.0000 C   0  0
   -1.2990    0.7500    0.0000 C   0  0
   -1.2990   -0.7500    0.0000 C   0  0
    0.0000   -1.5000    0.0000 C   0  0
   -1.7622   -9.1698    0.0000 C   0  0
   -3.2294   -8.8578    0.0000 C   0  0
   -4.2333   -9.9723    0.0000 C   0  0
   -3.7700  -11.3990    0.0000 C   0  0
   -2.3028  -11.7111    0.0000 C   0  0
   -1.2990  -10.5965    0.0000 C   0  0
    0.1684  -10.9119    0.0000 N   0  0
    0.6299  -12.3400    0.0000 C   0  0
    2.0959  -12.6573    0.0000 C   0  0
    2.5543  -14.0856    0.0000 C   0  0
    1.5465  -15.1966    0.0000 C   0  0
    0.0804  -14.8794    0.0000 C   0  0
   -0.9273  -15.9904    0.0000 Br  0  0
   -0.3779  -13.4511    0.0000 C   0  0
  1  2  2  0
  2  3  1  0
  3  4  1  0
  4  5  1  0
  5  6  1  0
  6  7  2  0
  7  8  1  0
  8  9  1  0
  9 10  2  0
 10 11  1  0
 11 12  2  0
 12 13  1  0
 13 14  2  0
 14  6  1  0
 14  9  1  0
  2 15  1  0
 15 16  2  0
 16 17  1  0
 17 18  2  0
 18 19  1  0
 19 20  2  0
 20 15  1  0
 20 21  1  0
 21 22  1  0
 22 23  2  0
 23 24  1  0
 24 25  2  0
 25 26  1  0
 26 27  1  0
 26 28  2  0
 28 22  1  0
M  END
> <Smiles>
O=C(NCCc1c[nH]c2ccccc12)c1ccccc1Nc1cccc(Br)c1

> <ID>
CHEMBL4859331

> <standard_value>
20970

> <IC50_uM>
20.97

> <Activity>
No

> <pIC50>
4.67840157

> <BCI>
0

$$$$

  SciTegic03012415362D

 36 40  0  0  1  0            999 V2000
    6.4983   -0.7414    0.0000 C   0  0
    5.2003   -1.4932    0.0000 C   0  0
    5.2029   -2.9932    0.0000 C   0  0
    3.8990   -0.7455    0.0000 C   0  0
    2.6003   -1.4977    0.0000 C   0  0
    1.2990   -0.7500    0.0000 C   0  0
    1.2990    0.7500    0.0000 C   0  0
    2.5981    1.5000    0.0000 O   0  0
    0.0000    1.5000    0.0000 C   0  0
   -1.2990    0.7500    0.0000 C   0  0
   -2.5981    1.5000    0.0000 O   0  0
   -1.2990   -0.7500    0.0000 C   0  0
    0.0000   -1.5000    0.0000 C   0  0
    0.0000   -3.0000    0.0000 O   0  0
   -1.2990   -3.7500    0.0000 C   0  0  1  0  0  0
   -2.5981   -3.0000    0.0000 C   0  0
   -3.6733   -1.9297    0.0000 C   0  0
   -4.6833   -3.0387    0.0000 C   0  0  1  0  0  0
   -4.2278   -4.4679    0.0000 C   0  0
   -4.8933   -5.8123    0.0000 O   0  0
   -2.8256   -3.9670    0.0000 C   0  0  3  0  0  0
   -1.4829   -4.6510    0.0000 C   0  0
   -0.2326   -3.8208    0.0000 C   0  0
    1.1119   -4.4877    0.0000 C   0  0
    2.3616   -3.6581    0.0000 C   0  0
    1.2061   -5.9848    0.0000 C   0  0
   -3.1375   -5.4343    0.0000 O   0  0
   -1.8384   -6.1843    0.0000 C   0  0
   -0.7237   -5.1806    0.0000 C   0  0  2  0  0  0
   -3.4146   -4.9826    0.0000 C   0  0  1  0  0  0
   -4.2298   -6.2341    0.0000 C   0  0
   -3.5531   -7.5738    0.0000 N   0  0
   -4.3738   -8.8294    0.0000 C   0  0
   -2.0555   -7.6571    0.0000 C   0  0
   -2.5981   -1.5000    0.0000 C   0  0
   -3.8971   -0.7500    0.0000 O   0  0
  1  2  1  0
  2  3  1  0
  2  4  2  0
  4  5  1  0
  5  6  1  0
  6  7  2  0
  7  8  1  0
  7  9  1  0
  9 10  2  0
 10 11  1  0
 10 12  1  0
 12 13  2  0
 13  6  1  0
 13 14  1  0
 15 14  1  6
 15 16  1  0
 16 17  2  0
 18 17  1  6
 18 19  1  0
 19 20  2  0
 19 21  1  0
 21 15  1  0
 21 22  1  4
 22 23  1  0
 23 24  2  0
 24 25  1  0
 24 26  1  0
 21 27  1  0
 27 28  1  0
 29 28  1  6
 29 15  1  0
 29 30  1  0
 30 18  1  0
 30 31  1  1
 31 32  1  0
 32 33  1  0
 32 34  1  0
 16 35  1  0
 35 12  1  0
 35 36  2  0
M  END
> <Smiles>
CC(C)=CCc1c(O)cc(O)c2c1O[C@@]13C(=C[C@H]4C(=O)C1(CC=C(C)C)OC[C@@H]3[C@H]4CN(C)C)C2=O

> <ID>
CHEMBL2335676

> <standard_value>
21200

> <IC50_uM>
21.2

> <Activity>
No

> <pIC50>
4.673664139

> <BCI>
0

$$$$

  SciTegic03012415362D

 41 46  0  0  1  0            999 V2000
    4.8147   -2.4028    0.0000 C   0  0
    5.4039   -1.0234    0.0000 C   0  0
    6.8932   -0.8444    0.0000 O   0  0
    4.5030    0.1770    0.0000 O   0  0
    3.0157    0.0000    0.0000 C   0  0  1  0  0  0
    2.1287   -1.3994    0.0000 C   0  0
    0.7096   -0.9264    0.0000 C   0  0  1  0  0  0
    0.8750   -2.4172    0.0000 C   0  0
   -0.5322   -1.6754    0.0000 C   0  0  3  0  0  0
   -0.5322   -3.1734    0.0000 C   0  0
   -1.8331   -3.9027    0.0000 C   0  0
   -3.1340   -3.1734    0.0000 C   0  0  3  0  0  0
   -4.4151   -3.9027    0.0000 C   0  0
   -3.0984   -4.6211    0.0000 C   0  0
   -5.7318   -4.6213    0.0000 C   0  0
   -5.6963   -3.1734    0.0000 C   0  0
   -6.9921   -3.9307    0.0000 N   0  0
   -6.9853   -5.4307    0.0000 O   0  0
   -5.6963   -1.6754    0.0000 C   0  0
   -4.4151   -0.9264    0.0000 C   0  0
   -3.1340   -1.6754    0.0000 C   0  0  1  0  0  0
   -3.1340    0.0394    0.0000 C   0  0
   -1.8528   -0.8870    0.0000 C   0  0  1  0  0  0
   -1.8331    0.5322    0.0000 C   0  0
   -0.5322    1.2812    0.0000 C   0  0
    0.7096    0.5322    0.0000 C   0  0  1  0  0  0
    0.8199    1.5261    0.0000 C   0  0
    2.1287    1.0052    0.0000 C   0  0  3  0  0  0
    2.5556    2.4434    0.0000 C   0  0  2  0  0  0
    4.0153    2.7890    0.0000 C   0  0
    1.1117    2.2043    0.0000 C   0  0
    0.4684    3.5593    0.0000 C   0  0
    1.5584    4.5898    0.0000 C   0  0  2  0  0  0
    1.3656    6.0756    0.0000 C   0  0
    2.5576    6.9862    0.0000 C   0  0
    1.1733    7.5633    0.0000 C   0  0
   -0.0196    6.6534    0.0000 O   0  0
   -0.2127    8.1418    0.0000 C   0  0
    0.9793    9.0523    0.0000 C   0  0
   -1.5971    8.7192    0.0000 O   0  0
    2.8753    3.8717    0.0000 O   0  0
  1  2  1  0
  2  3  2  0
  2  4  1  0
  5  4  1  1
  5  6  1  0
  6  7  1  0
  7  8  1  6
  7  9  1  0
  9 10  1  4
 10 11  1  0
 12 11  1  4
 12 13  1  0
 13 14  1  0
 13 15  1  0
 13 16  1  0
 16 17  2  0
 17 18  1  0
 16 19  1  0
 19 20  1  0
 21 20  1  6
 21 12  1  0
 21 22  1  0
 23 22  1  1
 23  9  1  0
 23 21  1  0
 23 24  1  0
 24 25  1  0
 25 26  1  0
 26  7  1  0
 26 27  1  1
 28 26  1  4
 28  5  1  0
 28 29  1  0
 29 30  1  1
 29 31  1  0
 31 32  1  0
 32 33  1  0
 33 34  1  6
 34 35  1  0
 34 36  1  0
 34 37  1  0
 37 38  1  0
 38 39  1  0
 38 40  2  0
 33 41  1  0
 41 29  1  0
M  END
> <Smiles>
CC(=O)O[C@H]1C[C@@]2(C)C3CCC4C(C)(C)/C(=N\O)CC[C@@]45C[C@@]35CC[C@]2(C)C1[C@]1(C)CC[C@H](C(C)(C)OC(C)=O)O1

> <ID>
CHEMBL180924

> <standard_value>
21370

> <IC50_uM>
21.37

> <Activity>
No

> <pIC50>
4.670195478

> <BCI>
0

$$$$

  SciTegic03012415362D

 28 31  0  0  0  0            999 V2000
    0.7077   -8.3622    0.0000 O   0  0
   -0.7600   -8.0526    0.0000 C   0  0
   -1.2256   -6.6258    0.0000 N   0  0
   -0.2234   -5.5086    0.0000 C   0  0
   -0.6890   -4.0818    0.0000 C   0  0
    0.3114   -2.9665    0.0000 C   0  0
    1.8032   -3.1233    0.0000 C   0  0
    2.4133   -1.7530    0.0000 N   0  0
    1.2990   -0.7500    0.0000 C   0  0
    1.2990    0.7500    0.0000 C   0  0
    0.0000    1.5000    0.0000 C   0  0
   -1.2990    0.7500    0.0000 C   0  0
   -1.2990   -0.7500    0.0000 C   0  0
    0.0000   -1.5000    0.0000 C   0  0
   -1.7622   -9.1698    0.0000 C   0  0
   -3.2294   -8.8578    0.0000 C   0  0
   -4.2333   -9.9723    0.0000 C   0  0
   -3.7700  -11.3990    0.0000 C   0  0
   -2.3028  -11.7111    0.0000 C   0  0
   -1.2990  -10.5965    0.0000 C   0  0
    0.1684  -10.9119    0.0000 N   0  0
    0.6299  -12.3400    0.0000 C   0  0
   -0.3779  -13.4511    0.0000 C   0  0
    0.0804  -14.8794    0.0000 C   0  0
    1.5465  -15.1966    0.0000 C   0  0
    2.5543  -14.0855    0.0000 C   0  0
    2.0959  -12.6573    0.0000 C   0  0
    3.1037  -11.5463    0.0000 Br  0  0
  1  2  2  0
  2  3  1  0
  3  4  1  0
  4  5  1  0
  5  6  1  0
  6  7  2  0
  7  8  1  0
  8  9  1  0
  9 10  2  0
 10 11  1  0
 11 12  2  0
 12 13  1  0
 13 14  2  0
 14  6  1  0
 14  9  1  0
  2 15  1  0
 15 16  2  0
 16 17  1  0
 17 18  2  0
 18 19  1  0
 19 20  2  0
 20 15  1  0
 20 21  1  0
 21 22  1  0
 22 23  2  0
 23 24  1  0
 24 25  2  0
 25 26  1  0
 26 27  2  0
 27 22  1  0
 27 28  1  0
M  END
> <Smiles>
O=C(NCCc1c[nH]c2ccccc12)c1ccccc1Nc1ccccc1Br

> <ID>
CHEMBL4868926

> <standard_value>
21370

> <IC50_uM>
21.37

> <Activity>
No

> <pIC50>
4.670195478

> <BCI>
0

$$$$

  SciTegic03012415362D

 56 61  0  0  1  0            999 V2000
    6.4833   -9.7648    0.0000 C   0  0
    6.4855   -8.2648    0.0000 C   0  0
    7.7858   -7.5171    0.0000 C   0  0
    5.1873   -7.5117    0.0000 C   0  0
    5.1894   -6.0109    0.0000 C   0  0
    3.8912   -5.2578    0.0000 C   0  0
    3.8933   -3.7570    0.0000 C   0  0
    5.1937   -3.0093    0.0000 C   0  0
    2.5951   -3.0039    0.0000 C   0  0
    2.5973   -1.5031    0.0000 C   0  0
    1.2990   -0.7500    0.0000 C   0  0
    1.2990    0.7500    0.0000 C   0  0
    2.5981    1.5000    0.0000 O   0  0
    0.0000    1.5000    0.0000 C   0  0
    0.0031    3.0008    0.0000 C   0  0
    1.3039    3.7494    0.0000 C   0  0
    1.3070    5.2502    0.0000 C   0  0
    2.6071    5.9984    0.0000 C   0  0
    0.0092    6.0025    0.0000 C   0  0
   -1.2990    0.7500    0.0000 C   0  0
   -1.2990   -0.7500    0.0000 C   0  0
    0.0000   -1.5000    0.0000 C   0  0
    0.0000   -3.0000    0.0000 O   0  0
   -2.5981   -1.5000    0.0000 C   0  0
   -2.5981   -3.0000    0.0000 O   0  0
   -3.8971   -0.7500    0.0000 C   0  0
   -5.1962   -1.5000    0.0000 C   0  0
   -6.4952   -0.7500    0.0000 C   0  0  3  0  0  0
   -6.4952    0.7500    0.0000 C   0  0
   -5.1962    1.5000    0.0000 C   0  0  2  0  0  0
   -6.6281    1.4607    0.0000 C   0  0
   -6.6262   -0.0393    0.0000 C   0  0
   -7.9465    2.1762    0.0000 C   0  0
   -5.8781    2.7597    0.0000 O   0  0
   -5.1962    1.5000    0.0000 C   0  0  1  0  0  0
   -6.3376    2.4826    0.0000 C   0  0
   -6.0549    3.9566    0.0000 C   0  0
   -7.1893    4.9392    0.0000 C   0  0
   -6.9053    6.4120    0.0000 C   0  0
   -8.6078    4.4489    0.0000 C   0  0
   -8.8918    2.9760    0.0000 O   0  0
   -9.7423    5.4315    0.0000 O   0  0
  -11.1607    4.9412    0.0000 C   0  0
  -12.2952    5.9238    0.0000 C   0  0
  -13.7137    5.4335    0.0000 C   0  0
  -14.8481    6.4161    0.0000 C   0  0
  -16.2666    5.9258    0.0000 N   0  0
  -17.4019    6.9063    0.0000 C   0  0
  -18.8186    6.4134    0.0000 C   0  0
  -19.1001    4.9400    0.0000 O   0  0
  -17.9649    3.9596    0.0000 C   0  0
  -16.5482    4.4524    0.0000 C   0  0
   -6.4952    0.7500    0.0000 C   0  0
   -7.7942    1.5000    0.0000 O   0  0
   -3.8971    0.7500    0.0000 C   0  0  3  0  0  0
   -2.5981    1.5000    0.0000 O   0  0
  1  2  1  0
  2  3  1  0
  2  4  2  0
  4  5  1  0
  5  6  1  0
  6  7  1  0
  7  8  1  0
  7  9  2  0
  9 10  1  0
 10 11  1  0
 11 12  2  0
 12 13  1  0
 12 14  1  0
 14 15  1  0
 15 16  1  0
 16 17  2  0
 17 18  1  0
 17 19  1  0
 14 20  2  0
 20 21  1  0
 21 22  2  0
 22 11  1  0
 22 23  1  0
 21 24  1  0
 24 25  2  0
 24 26  1  0
 26 27  2  0
 28 27  1  6
 28 29  1  0
 30 29  1  1
 30 31  1  0
 31 32  1  0
 31 33  1  0
 31 34  1  0
 34 35  1  0
 35 36  1  1
 36 37  1  0
 37 38  2  0
 38 39  1  0
 38 40  1  0
 40 41  2  0
 40 42  1  0
 42 43  1  0
 43 44  1  0
 44 45  1  0
 45 46  1  0
 46 47  1  0
 47 48  1  0
 48 49  1  0
 49 50  1  0
 50 51  1  0
 51 52  1  0
 52 47  1  0
 35 53  1  0
 53 28  1  0
 53 54  2  0
 35 55  1  0
 55 26  1  0
 55 30  1  0
 55 56  1  6
 56 20  1  0
M  END
> <Smiles>
CC(C)=CCC/C(C)=C/Cc1c(O)c(CC=C(C)C)c2c(c1O)C(=O)C1=C[C@@H]3C[C@@H]4C(C)(C)O[C@@](C/C=C(/C)C(=O)OCCCCN5CCOCC5)(C3=O)[C@@]14O2

> <ID>
CHEMBL4299413

> <standard_value>
21550

> <IC50_uM>
21.55

> <Activity>
No

> <pIC50>
4.666552726

> <BCI>
0

$$$$

  SciTegic03012415362D

 37 41  0  0  1  0            999 V2000
    5.1937   -3.0093    0.0000 C   0  0
    3.8933   -3.7570    0.0000 C   0  0
    3.8912   -5.2570    0.0000 O   0  0
    2.5951   -3.0039    0.0000 O   0  0
    2.5973   -1.5031    0.0000 C   0  0
    1.2990   -0.7500    0.0000 C   0  0  2  0  0  0
    1.2990    0.7500    0.0000 C   0  0  1  0  0  0
    0.7500   -0.7205    0.0000 C   0  0
   -0.7500   -0.7205    0.0000 O   0  0
   -1.2990    0.7500    0.0000 C   0  0  3  0  0  0
   -1.7996   -0.6800    0.0000 C   0  0
   -0.8399   -1.8338    0.0000 C   0  0
   -1.3585   -3.2422    0.0000 C   0  0
   -0.3993   -4.3955    0.0000 C   0  0
   -2.8367   -3.4968    0.0000 C   0  0
   -1.2990   -0.7500    0.0000 C   0  0
   -2.5981   -1.5000    0.0000 O   0  0
    0.0000   -1.5000    0.0000 C   0  0  2  0  0  0
    1.1367    0.4746    0.0000 C   0  0
   -0.7043    2.8783    0.0000 C   0  0
    0.0457    4.1773    0.0000 C   0  0
   -0.7043    5.4764    0.0000 O   0  0
    1.5457    4.1773    0.0000 C   0  0
    2.2957    2.8783    0.0000 C   0  0
    3.7957    2.8783    0.0000 C   0  0
    4.5457    4.1773    0.0000 C   0  0
    6.0457    4.1773    0.0000 O   0  0
    3.7957    5.4764    0.0000 C   0  0
    4.5435    6.7777    0.0000 C   0  0
    3.7912    8.0764    0.0000 C   0  0
    4.5389    9.3777    0.0000 C   0  0
    3.7871   10.6756    0.0000 C   0  0
    6.0389    9.3803    0.0000 C   0  0
    2.2957    5.4764    0.0000 C   0  0
    1.5457    6.7754    0.0000 O   0  0
    1.5457    1.5793    0.0000 O   0  0
    0.0000    1.5000    0.0000 C   0  0  1  0  0  0
  1  2  1  0
  2  3  2  0
  2  4  1  0
  4  5  1  0
  6  5  1  1
  6  7  1  0
  7  8  1  6
  8  9  1  0
  9 10  1  0
 10 11  1  4
 11 12  1  0
 12 13  2  0
 13 14  1  0
 13 15  1  0
 10 16  1  0
 16 17  2  0
 16 18  1  0
 18  6  1  0
 18 19  1  1
 19 20  2  0
 20 21  1  0
 21 22  2  0
 21 23  1  0
 23 24  2  0
 24 25  1  0
 25 26  2  0
 26 27  1  0
 26 28  1  0
 28 29  1  0
 29 30  1  0
 30 31  2  0
 31 32  1  0
 31 33  1  0
 28 34  2  0
 34 23  1  0
 34 35  1  0
 24 36  1  0
 37 36  1  6
 37 20  1  0
 37  7  1  0
 37 10  1  0
M  END
> <Smiles>
CC(=O)OC[C@@H]1[C@H]2COC3(CC=C(C)C)C(=O)[C@@H]1C=C1C(=O)c4c(cc(O)c(CC=C(C)C)c4O)O[C@]123

> <ID>
CHEMBL2336588

> <standard_value>
21600

> <IC50_uM>
21.6

> <Activity>
No

> <pIC50>
4.665546249

> <BCI>
0

$$$$

  SciTegic03012415362D

 26 30  0  0  0  0            999 V2000
    3.1882    2.6402    0.0000 O   0  0
    2.7248    1.2135    0.0000 C   0  0
    3.6065    0.0000    0.0000 N   0  0
    2.7248   -1.2135    0.0000 C   0  0
    3.1882   -2.6401    0.0000 O   0  0
    1.2990   -0.7500    0.0000 C   0  0
    1.2990    0.7500    0.0000 C   0  0
    0.0000    1.5000    0.0000 C   0  0
    0.0000    3.0008    0.0000 C   0  0
   -1.3002    3.7488    0.0000 C   0  0
   -1.3026    5.2488    0.0000 C   0  0
   -0.0048    6.0009    0.0000 C   0  0
    1.2954    5.2529    0.0000 C   0  0
    1.2978    3.7529    0.0000 C   0  0
    2.5981    3.0050    0.0000 Cl  0  0
   -1.2990    0.7500    0.0000 C   0  0
   -1.2990   -0.7500    0.0000 C   0  0
   -2.4133   -1.7530    0.0000 N   0  0
   -1.8032   -3.1233    0.0000 C   0  0
   -2.4134   -4.4924    0.0000 C   0  0
   -1.5318   -5.7059    0.0000 C   0  0
   -0.0400   -5.5491    0.0000 C   0  0
    0.8417   -6.7626    0.0000 O   0  0
    0.5701   -4.1788    0.0000 C   0  0
   -0.3114   -2.9665    0.0000 C   0  0
    0.0000   -1.5000    0.0000 C   0  0
  1  2  2  0
  2  3  1  0
  3  4  1  0
  4  5  2  0
  4  6  1  0
  6  7  2  0
  7  2  1  0
  7  8  1  0
  8  9  1  0
  9 10  2  0
 10 11  1  0
 11 12  2  0
 12 13  1  0
 13 14  2  0
 14  9  1  0
 14 15  1  0
  8 16  2  0
 16 17  1  0
 17 18  1  0
 18 19  1  0
 19 20  2  0
 20 21  1  0
 21 22  2  0
 22 23  1  0
 22 24  1  0
 24 25  2  0
 25 19  1  0
 25 26  1  0
 26  6  1  0
 26 17  2  0
M  END
> <Smiles>
O=C1NC(=O)c2c1c(-c1ccccc1Cl)cc1[nH]c3ccc(O)cc3c21

> <ID>
CHEMBL379975

> <standard_value>
21638.5

> <IC50_uM>
21.6385

> <Activity>
No

> <pIC50>
4.664772848

> <BCI>
0

$$$$

  SciTegic03012415362D

 22 24  0  0  0  0            999 V2000
    3.1476   -0.7184    0.0000 O   0  0
    1.6852   -0.3846    0.0000 C   0  0
    1.3514    1.0778    0.0000 C   0  0
    0.0000    1.7286    0.0000 C   0  0
   -1.3515    1.0777    0.0000 C   0  0
   -2.4523    2.0983    0.0000 C   0  0
   -2.1188    3.5607    0.0000 O   0  0
   -3.8856    1.6561    0.0000 C   0  0
   -4.2194    0.1937    0.0000 C   0  0
   -5.6526   -0.2516    0.0000 C   0  0
   -5.9845   -1.7153    0.0000 C   0  0
   -7.4177   -2.1606    0.0000 C   0  0
   -8.5174   -1.1404    0.0000 C   0  0
   -9.9508   -1.5826    0.0000 C   0  0
  -10.2845   -3.0450    0.0000 C   0  0
   -9.1849   -4.0652    0.0000 C   0  0
   -7.7516   -3.6230    0.0000 C   0  0
   -6.6520   -4.6433    0.0000 O   0  0
   -3.1198   -0.8265    0.0000 C   0  0
   -1.6852   -0.3847    0.0000 C   0  0
   -0.7500   -1.5574    0.0000 O   0  0
    0.7500   -1.5574    0.0000 C   0  0
  1  2  2  0
  2  3  1  0
  3  4  2  0
  4  5  1  0
  5  6  2  0
  6  7  1  0
  6  8  1  0
  8  9  2  0
  9 10  1  0
 10 11  1  0
 11 12  1  0
 12 13  2  0
 13 14  1  0
 14 15  2  0
 15 16  1  0
 16 17  2  0
 17 12  1  0
 17 18  1  0
  9 19  1  0
 19 20  2  0
 20  5  1  0
 20 21  1  0
 21 22  1  0
 22  2  1  0
M  END
> <Smiles>
O=C1C=Cc2c(O)cc(CCc3ccccc3O)cc2OC1

> <ID>
CHEMBL4516539

> <standard_value>
21700

> <IC50_uM>
21.7

> <Activity>
No

> <pIC50>
4.663540266

> <BCI>
0

$$$$

  SciTegic03012415362D

 35 38  0  0  0  0            999 V2000
    3.8983   -0.7459    0.0000 C   0  0
    2.6003   -1.4977    0.0000 O   0  0
    1.2990   -0.7500    0.0000 C   0  0
    1.2990    0.7500    0.0000 C   0  0
    0.0000    1.5000    0.0000 C   0  0
   -0.0031    3.0008    0.0000 C   0  0
   -1.3039    3.7494    0.0000 C   0  0
   -1.3070    5.2502    0.0000 C   0  0
   -0.0093    6.0025    0.0000 O   0  0
   -2.6078    5.9988    0.0000 C   0  0
   -2.6109    7.4996    0.0000 C   0  0
   -1.3132    8.2519    0.0000 O   0  0
   -3.9118    8.2481    0.0000 C   0  0
   -3.9149    9.7490    0.0000 C   0  0
   -5.2157   10.4975    0.0000 C   0  0
   -5.2210   11.9975    0.0000 C   0  0
   -6.5226   12.7430    0.0000 C   0  0
   -7.8190   11.9885    0.0000 C   0  0
   -9.1213   12.7344    0.0000 N   0  0
   -9.2667   14.2146    0.0000 C   0  0
  -10.7355   14.5190    0.0000 C   0  0
  -11.4789   13.2162    0.0000 N   0  0
  -10.4696   12.1066    0.0000 C   0  0
   -7.8138   10.4885    0.0000 C   0  0
   -9.1094    9.7310    0.0000 O   0  0
   -9.1021    8.2310    0.0000 C   0  0
   -6.5122    9.7430    0.0000 C   0  0
   -1.2990    0.7500    0.0000 C   0  0
   -1.2990   -0.7500    0.0000 C   0  0
    0.0000   -1.5000    0.0000 C   0  0
    0.0000   -3.0008    0.0000 N   0  0
   -1.2122   -3.8625    0.0000 C   0  0
   -0.7464   -5.2884    0.0000 C   0  0
    0.7536   -5.2860    0.0000 N   0  0
    1.2149   -3.8587    0.0000 C   0  0
  1  2  1  0
  2  3  1  0
  3  4  2  0
  4  5  1  0
  5  6  1  0
  6  7  2  0
  7  8  1  0
  8  9  2  0
  8 10  1  0
 10 11  2  0
 11 12  1  0
 11 13  1  0
 13 14  2  0
 14 15  1  0
 15 16  2  0
 16 17  1  0
 17 18  2  0
 18 19  1  0
 19 20  1  0
 20 21  2  0
 21 22  1  0
 22 23  2  0
 23 19  1  0
 18 24  1  0
 24 25  1  0
 25 26  1  0
 24 27  2  0
 27 15  1  0
  5 28  2  0
 28 29  1  0
 29 30  2  0
 30  3  1  0
 30 31  1  0
 31 32  1  0
 32 33  2  0
 33 34  1  0
 34 35  2  0
 35 31  1  0
M  END
> <Smiles>
COc1cc(/C=C/C(=O)/C=C(O)/C=C/c2ccc(-n3ccnc3)c(OC)c2)ccc1-n1ccnc1

> <ID>
CHEMBL1669056

> <standard_value>
22000

> <IC50_uM>
22

> <Activity>
No

> <pIC50>
4.657577319

> <BCI>
0

$$$$

  SciTegic03012415362D

 41 46  0  0  1  0            999 V2000
    6.4983   -0.7414    0.0000 C   0  0
    5.2003   -1.4932    0.0000 C   0  0
    5.2029   -2.9932    0.0000 C   0  0
    3.8990   -0.7455    0.0000 C   0  0
    2.6003   -1.4977    0.0000 C   0  0
    1.2990   -0.7500    0.0000 C   0  0
    1.2990    0.7500    0.0000 C   0  0
    2.5981    1.5000    0.0000 O   0  0
    0.0000    1.5000    0.0000 C   0  0
   -1.2990    0.7500    0.0000 C   0  0
   -2.5981    1.5000    0.0000 O   0  0
   -1.2990   -0.7500    0.0000 C   0  0
    0.0000   -1.5000    0.0000 C   0  0
    0.0000   -3.0000    0.0000 O   0  0
   -1.2990   -3.7500    0.0000 C   0  0  1  0  0  0
   -2.5981   -3.0000    0.0000 C   0  0
   -3.6733   -1.9297    0.0000 C   0  0
   -4.6833   -3.0387    0.0000 C   0  0  1  0  0  0
   -4.2278   -4.4679    0.0000 C   0  0
   -4.8933   -5.8123    0.0000 O   0  0
   -2.8256   -3.9670    0.0000 C   0  0  3  0  0  0
   -1.4829   -4.6510    0.0000 C   0  0
   -0.2326   -3.8208    0.0000 C   0  0
    1.1119   -4.4877    0.0000 C   0  0
    2.3616   -3.6581    0.0000 C   0  0
    1.2061   -5.9848    0.0000 C   0  0
   -3.1375   -5.4343    0.0000 O   0  0
   -1.8384   -6.1843    0.0000 C   0  0
   -0.7237   -5.1806    0.0000 C   0  0  2  0  0  0
   -3.4146   -4.9826    0.0000 C   0  0  1  0  0  0
   -4.2298   -6.2341    0.0000 C   0  0
   -3.5531   -7.5738    0.0000 O   0  0
   -4.3742   -8.8301    0.0000 C   0  0
   -3.6976  -10.1698    0.0000 C   0  0
   -4.5164  -11.4266    0.0000 C   0  0
   -3.8374  -12.7641    0.0000 C   0  0
   -2.3396  -12.8449    0.0000 C   0  0
   -1.5208  -11.5881    0.0000 C   0  0
   -2.1997  -10.2506    0.0000 C   0  0
   -2.5981   -1.5000    0.0000 C   0  0
   -3.8971   -0.7500    0.0000 O   0  0
  1  2  1  0
  2  3  1  0
  2  4  2  0
  4  5  1  0
  5  6  1  0
  6  7  2  0
  7  8  1  0
  7  9  1  0
  9 10  2  0
 10 11  1  0
 10 12  1  0
 12 13  2  0
 13  6  1  0
 13 14  1  0
 15 14  1  6
 15 16  1  0
 16 17  2  0
 18 17  1  6
 18 19  1  0
 19 20  2  0
 19 21  1  0
 21 15  1  0
 21 22  1  4
 22 23  1  0
 23 24  2  0
 24 25  1  0
 24 26  1  0
 21 27  1  0
 27 28  1  0
 29 28  1  6
 29 15  1  0
 29 30  1  0
 30 18  1  0
 30 31  1  1
 31 32  1  0
 32 33  1  0
 33 34  1  0
 34 35  2  0
 35 36  1  0
 36 37  2  0
 37 38  1  0
 38 39  2  0
 39 34  1  0
 16 40  1  0
 40 12  1  0
 40 41  2  0
M  END
> <Smiles>
CC(C)=CCc1c(O)cc(O)c2c1O[C@@]13C(=C[C@H]4C(=O)C1(CC=C(C)C)OC[C@@H]3[C@H]4COCc1ccccc1)C2=O

> <ID>
CHEMBL2336093

> <standard_value>
22100

> <IC50_uM>
22.1

> <Activity>
No

> <pIC50>
4.655607726

> <BCI>
0

$$$$

  SciTegic03012415362D

 28 31  0  0  0  0            999 V2000
    0.7077   -8.3622    0.0000 O   0  0
   -0.7600   -8.0526    0.0000 C   0  0
   -1.2256   -6.6258    0.0000 N   0  0
   -0.2234   -5.5086    0.0000 C   0  0
   -0.6890   -4.0818    0.0000 C   0  0
    0.3114   -2.9665    0.0000 C   0  0
    1.8032   -3.1233    0.0000 C   0  0
    2.4133   -1.7530    0.0000 N   0  0
    1.2990   -0.7500    0.0000 C   0  0
    1.2990    0.7500    0.0000 C   0  0
    0.0000    1.5000    0.0000 C   0  0
   -1.2990    0.7500    0.0000 C   0  0
   -1.2990   -0.7500    0.0000 C   0  0
    0.0000   -1.5000    0.0000 C   0  0
   -1.7622   -9.1698    0.0000 C   0  0
   -3.2294   -8.8578    0.0000 C   0  0
   -4.2333   -9.9723    0.0000 C   0  0
   -3.7700  -11.3990    0.0000 C   0  0
   -2.3028  -11.7111    0.0000 C   0  0
   -1.2990  -10.5965    0.0000 C   0  0
    0.1684  -10.9119    0.0000 N   0  0
    0.6299  -12.3400    0.0000 C   0  0
    2.0959  -12.6573    0.0000 C   0  0
    2.5543  -14.0856    0.0000 C   0  0
    1.5465  -15.1966    0.0000 C   0  0
    0.0804  -14.8794    0.0000 C   0  0
   -0.9273  -15.9904    0.0000 Cl  0  0
   -0.3779  -13.4511    0.0000 C   0  0
  1  2  2  0
  2  3  1  0
  3  4  1  0
  4  5  1  0
  5  6  1  0
  6  7  2  0
  7  8  1  0
  8  9  1  0
  9 10  2  0
 10 11  1  0
 11 12  2  0
 12 13  1  0
 13 14  2  0
 14  6  1  0
 14  9  1  0
  2 15  1  0
 15 16  2  0
 16 17  1  0
 17 18  2  0
 18 19  1  0
 19 20  2  0
 20 15  1  0
 20 21  1  0
 21 22  1  0
 22 23  2  0
 23 24  1  0
 24 25  2  0
 25 26  1  0
 26 27  1  0
 26 28  2  0
 28 22  1  0
M  END
> <Smiles>
O=C(NCCc1c[nH]c2ccccc12)c1ccccc1Nc1cccc(Cl)c1

> <ID>
CHEMBL4873048

> <standard_value>
22240

> <IC50_uM>
22.24

> <Activity>
No

> <pIC50>
4.652865217

> <BCI>
0

$$$$

  SciTegic03012415362D

 34 38  0  0  1  0            999 V2000
    3.8912   -5.2570    0.0000 C   0  0
    3.8933   -3.7570    0.0000 C   0  0
    5.1937   -3.0093    0.0000 C   0  0
    2.5951   -3.0039    0.0000 C   0  0
    2.5973   -1.5031    0.0000 C   0  0
    1.2990   -0.7500    0.0000 C   0  0
    1.2990    0.7500    0.0000 C   0  0
    2.5981    1.5000    0.0000 O   0  0
    0.0000    1.5000    0.0000 C   0  0
   -1.2990    0.7500    0.0000 C   0  0
   -1.2990   -0.7500    0.0000 C   0  0
    0.0000   -1.5000    0.0000 C   0  0
    0.0000   -3.0000    0.0000 O   0  0
   -2.5981   -1.5000    0.0000 C   0  0
   -2.5981   -3.0000    0.0000 O   0  0
   -3.8971   -0.7500    0.0000 C   0  0
   -5.1962   -1.5000    0.0000 C   0  0
   -6.4952   -0.7500    0.0000 C   0  0  3  0  0  0
   -6.4952    0.7500    0.0000 C   0  0
   -5.1962    1.5000    0.0000 C   0  0  1  0  0  0
   -6.6281    1.4607    0.0000 C   0  0
   -6.6262   -0.0393    0.0000 C   0  0
   -7.9465    2.1762    0.0000 C   0  0
   -5.8781    2.7597    0.0000 O   0  0
   -5.1962    1.5000    0.0000 C   0  0  3  0  0  0
   -6.3376    2.4826    0.0000 C   0  0
   -6.0549    3.9566    0.0000 C   0  0
   -7.1893    4.9392    0.0000 C   0  0
   -6.9067    6.4123    0.0000 C   0  0
   -8.6065    4.4478    0.0000 C   0  0
   -6.4952    0.7500    0.0000 C   0  0
   -7.7942    1.5000    0.0000 O   0  0
   -3.8971    0.7500    0.0000 C   0  0  3  0  0  0
   -2.5981    1.5000    0.0000 O   0  0
  1  2  1  0
  2  3  1  0
  2  4  2  0
  4  5  1  0
  5  6  1  0
  6  7  2  0
  7  8  1  0
  7  9  1  0
  9 10  2  0
 10 11  1  0
 11 12  2  0
 12  6  1  0
 12 13  1  0
 11 14  1  0
 14 15  2  0
 14 16  1  0
 16 17  2  0
 18 17  1  6
 18 19  1  0
 20 19  1  6
 20 21  1  0
 21 22  1  0
 21 23  1  0
 21 24  1  0
 24 25  1  0
 25 26  1  4
 26 27  1  0
 27 28  2  0
 28 29  1  0
 28 30  1  0
 25 31  1  0
 31 18  1  0
 31 32  2  0
 25 33  1  0
 33 16  1  0
 33 20  1  0
 33 34  1  6
 34 10  1  0
M  END
> <Smiles>
CC(C)=CCc1c(O)cc2c(c1O)C(=O)C1=C[C@@H]3C[C@H]4C(C)(C)OC(CC=C(C)C)(C3=O)[C@@]14O2

> <ID>
CHEMBL2336597

> <standard_value>
22400

> <IC50_uM>
22.4

> <Activity>
No

> <pIC50>
4.649751982

> <BCI>
0

$$$$

  SciTegic03012415362D

 34 38  0  0  1  0            999 V2000
    3.8912   -5.2570    0.0000 C   0  0
    3.8933   -3.7570    0.0000 C   0  0
    5.1937   -3.0093    0.0000 C   0  0
    2.5951   -3.0039    0.0000 C   0  0
    2.5973   -1.5031    0.0000 C   0  0
    1.2990   -0.7500    0.0000 C   0  0
    1.2990    0.7500    0.0000 C   0  0
    2.5981    1.5000    0.0000 O   0  0
    0.0000    1.5000    0.0000 C   0  0
   -1.2990    0.7500    0.0000 C   0  0
   -1.2990   -0.7500    0.0000 C   0  0
    0.0000   -1.5000    0.0000 C   0  0
    0.0000   -3.0000    0.0000 O   0  0
   -2.5981   -1.5000    0.0000 C   0  0
   -2.5981   -3.0000    0.0000 O   0  0
   -3.8971   -0.7500    0.0000 C   0  0
   -5.1962   -1.5000    0.0000 C   0  0
   -6.4952   -0.7500    0.0000 C   0  0  3  0  0  0
   -6.4952    0.7500    0.0000 C   0  0
   -5.1962    1.5000    0.0000 C   0  0  1  0  0  0
   -6.6281    1.4607    0.0000 C   0  0
   -6.6262   -0.0393    0.0000 C   0  0
   -7.9465    2.1762    0.0000 C   0  0
   -5.8781    2.7597    0.0000 O   0  0
   -5.1962    1.5000    0.0000 C   0  0  1  0  0  0
   -6.3376    2.4826    0.0000 C   0  0
   -6.0549    3.9566    0.0000 C   0  0
   -7.1893    4.9392    0.0000 C   0  0
   -6.9067    6.4123    0.0000 C   0  0
   -8.6065    4.4478    0.0000 C   0  0
   -6.4952    0.7500    0.0000 C   0  0
   -7.7942    1.5000    0.0000 O   0  0
   -3.8971    0.7500    0.0000 C   0  0  3  0  0  0
   -2.5981    1.5000    0.0000 O   0  0
  1  2  1  0
  2  3  1  0
  2  4  2  0
  4  5  1  0
  5  6  1  0
  6  7  2  0
  7  8  1  0
  7  9  1  0
  9 10  2  0
 10 11  1  0
 11 12  2  0
 12  6  1  0
 12 13  1  0
 11 14  1  0
 14 15  2  0
 14 16  1  0
 16 17  2  0
 18 17  1  6
 18 19  1  0
 20 19  1  6
 20 21  1  0
 21 22  1  0
 21 23  1  0
 21 24  1  0
 24 25  1  0
 25 26  1  1
 26 27  1  0
 27 28  2  0
 28 29  1  0
 28 30  1  0
 25 31  1  0
 31 18  1  0
 31 32  2  0
 25 33  1  0
 33 16  1  0
 33 20  1  0
 33 34  1  6
 34 10  1  0
M  END
> <Smiles>
CC(C)=CCc1c(O)cc2c(c1O)C(=O)C1=C[C@@H]3C[C@H]4C(C)(C)O[C@@](CC=C(C)C)(C3=O)[C@@]14O2

> <ID>
CHEMBL1958315

> <standard_value>
22440

> <IC50_uM>
22.44

> <Activity>
No

> <pIC50>
4.648977147

> <BCI>
0

$$$$

  SciTegic03012415362D

 25 27  0  0  0  0            999 V2000
    9.0976   -3.7432    0.0000 C   0  0
    7.7985   -2.9932    0.0000 C   0  0
    7.7985   -1.4932    0.0000 C   0  0
    6.4994   -0.7432    0.0000 C   0  0
    5.2003   -1.4932    0.0000 C   0  0
    3.8990   -0.7455    0.0000 C   0  0
    3.8964    0.7545    0.0000 O   0  0
    2.6003   -1.4977    0.0000 O   0  0
    1.2990   -0.7500    0.0000 C   0  0
    1.2990    0.7500    0.0000 C   0  0
    0.0000    1.5000    0.0000 C   0  0
    0.0000    3.0000    0.0000 C   0  0
    1.2990    3.7500    0.0000 C   0  0
   -1.2991    3.7500    0.0000 C   0  0
   -2.5981    3.0000    0.0000 C   0  0
   -2.5981    1.5000    0.0000 C   0  0
   -3.8994    0.7522    0.0000 C   0  0
   -5.1974    1.5041    0.0000 C   0  0
   -3.9020   -0.7478    0.0000 C   0  0
   -1.2990    0.7500    0.0000 C   0  0
   -1.2990   -0.7500    0.0000 C   0  0
    0.0000   -1.5000    0.0000 C   0  0
    0.0000   -3.0000    0.0000 C   0  0
    5.2004   -2.9933    0.0000 C   0  0
    6.4995   -3.7432    0.0000 C   0  0
  1  2  1  0
  2  3  2  0
  3  4  1  0
  4  5  2  0
  5  6  1  0
  6  7  2  0
  6  8  1  0
  8  9  1  0
  9 10  2  0
 10 11  1  0
 11 12  2  0
 12 13  1  0
 12 14  1  0
 14 15  2  0
 15 16  1  0
 16 17  1  0
 17 18  1  0
 17 19  1  0
 16 20  2  0
 20 11  1  0
 20 21  1  0
 21 22  2  0
 22  9  1  0
 22 23  1  0
  5 24  1  0
 24 25  2  0
 25  2  1  0
M  END
> <Smiles>
Cc1ccc(C(=O)Oc2cc3c(C)ccc(C(C)C)c3cc2C)cc1

> <ID>
CHEMBL4103953

> <standard_value>
22790

> <IC50_uM>
22.79

> <Activity>
No

> <pIC50>
4.642255675

> <BCI>
0

$$$$

  SciTegic03012415362D

 32 36  0  0  1  0            999 V2000
    2.5981   -1.5000    0.0000 C   0  0
    1.2990   -0.7500    0.0000 C   0  0  1  0  0  0
    1.2990    0.7500    0.0000 C   0  0  1  0  0  0
    2.5981    1.5000    0.0000 O   0  0
    0.0000    1.5000    0.0000 C   0  0
   -1.2990    0.7500    0.0000 C   0  0  1  0  0  0
   -2.5981    1.5000    0.0000 O   0  0
   -1.2990   -0.7500    0.0000 C   0  0  2  0  0  0
    0.0000   -1.5000    0.0000 C   0  0  1  0  0  0
    1.2990   -2.2500    0.0000 C   0  0
    0.0000   -3.0000    0.0000 C   0  0
   -1.2990   -3.7500    0.0000 C   0  0
   -2.5981   -3.0000    0.0000 C   0  0  1  0  0  0
   -2.5981   -1.5000    0.0000 C   0  0  2  0  0  0
   -2.5981    0.0000    0.0000 C   0  0
   -3.8971   -0.7500    0.0000 C   0  0
   -5.1962   -1.5000    0.0000 C   0  0
   -5.1961   -3.0000    0.0000 C   0  0  1  0  0  0
   -6.4952   -2.2500    0.0000 C   0  0
   -6.4952   -3.7500    0.0000 C   0  0  2  0  0  0
   -7.7942   -3.0000    0.0000 C   0  0
   -9.0933   -3.7500    0.0000 C   0  0
   -9.0579   -2.2505    0.0000 C   0  0
  -10.3743   -4.5304    0.0000 C   0  0
   -9.0933   -5.2500    0.0000 C   0  0
   -7.7942   -6.0000    0.0000 C   0  0
   -6.4952   -5.2500    0.0000 C   0  0  1  0  0  0
   -6.4952   -6.7500    0.0000 C   0  0
   -5.1961   -6.0000    0.0000 C   0  0
   -3.8971   -5.2500    0.0000 C   0  0
   -3.8971   -3.7500    0.0000 C   0  0  2  0  0  0
   -2.5981   -4.5000    0.0000 C   0  0
  2  1  1  6
  2  3  1  0
  3  4  1  6
  3  5  1  0
  5  6  1  0
  6  7  1  6
  8  6  1  6
  8  9  1  0
  9  2  1  0
  9 10  1  6
  9 11  1  0
 11 12  1  0
 13 12  1  6
 13 14  1  0
 14  8  1  0
 14 15  1  6
 14 16  1  0
 16 17  1  0
 17 18  1  0
 18 19  1  1
 18 20  1  0
 20 21  1  1
 21 22  1  0
 22 23  1  0
 22 24  1  0
 22 25  1  0
 25 26  1  0
 26 27  1  0
 27 20  1  0
 27 28  1  6
 27 29  1  0
 29 30  1  0
 30 31  1  0
 31 13  1  0
 31 18  1  0
 31 32  1  6
M  END
> <Smiles>
C[C@H]1[C@@H](O)C[C@@H](O)[C@@H]2[C@]1(C)CC[C@H]1[C@@]2(C)CC[C@@]2(C)[C@@H]3CC(C)(C)CC[C@]3(C)CC[C@]12C

> <ID>
CHEMBL1641909

> <standard_value>
22800

> <IC50_uM>
22.8

> <Activity>
No

> <pIC50>
4.642065153

> <BCI>
0

$$$$

  SciTegic03012415362D

292320  0  0  0  0            999 V2000
  -28.7399  -42.6708    0.0000 C   0  0
  -28.3350  -41.2265    0.0000 O   0  0
  -29.3832  -40.1524    0.0000 C   0  0
  -30.8375  -40.5200    0.0000 C   0  0
  -31.8829  -39.4443    0.0000 C   0  0
  -31.4741  -38.0011    0.0000 C   0  0
  -30.0199  -37.6335    0.0000 C   0  0
  -28.9744  -38.7092    0.0000 C   0  0
  -29.9198  -36.1377    0.0000 C   0  0
  -28.6533  -35.3372    0.0000 C   0  0
  -28.7124  -33.8376    0.0000 C   0  0
  -30.0402  -33.1397    0.0000 O   0  0
  -27.4437  -33.0358    0.0000 O   0  0
  -27.5028  -31.5361    0.0000 C   0  0
  -26.2341  -30.7343    0.0000 C   0  0
  -26.2932  -29.2347    0.0000 N   0  0
  -25.0245  -28.4329    0.0000 C   0  0
  -23.6967  -29.1307    0.0000 O   0  0
  -25.0835  -26.9332    0.0000 C   0  0
  -23.8148  -26.1314    0.0000 O   0  0
  -23.8739  -24.6317    0.0000 C   0  0
  -25.2029  -23.9361    0.0000 C   0  0
  -25.2650  -22.4374    0.0000 C   0  0
  -26.5961  -21.7441    0.0000 O   0  0
  -27.8626  -22.5495    0.0000 C   0  0
  -29.1937  -21.8562    0.0000 C   0  0
  -29.2368  -20.8572    0.0000 O   0  0
  -30.4601  -22.6616    0.0000 N   0  0
  -31.7912  -21.9684    0.0000 C   0  0
  -33.0577  -22.7738    0.0000 C   0  0
  -34.3888  -22.0805    0.0000 O   0  0
  -35.6552  -22.8859    0.0000 C   0  0
  -35.5905  -24.3845    0.0000 O   0  0
  -36.9864  -22.1927    0.0000 C   0  0
  -38.2528  -22.9980    0.0000 C   0  0
  -38.3244  -24.4836    0.0000 C   0  0
  -37.1603  -25.4295    0.0000 C   0  0
  -39.7762  -24.8607    0.0000 N   0  0
  -40.3211  -26.2563    0.0000 C   0  0
  -41.8041  -26.4820    0.0000 O   0  0
  -39.3841  -27.4287    0.0000 C   0  0
  -39.9277  -28.8268    0.0000 C   0  0
  -38.9888  -29.9966    0.0000 C   0  0
  -37.5063  -29.7684    0.0000 C   0  0
  -36.8804  -30.5483    0.0000 Cl  0  0
  -36.9626  -28.3704    0.0000 C   0  0
  -37.9015  -27.2006    0.0000 C   0  0
  -40.5828  -23.5970    0.0000 C   0  0
  -42.0625  -23.3511    0.0000 C   0  0
  -42.5894  -21.9466    0.0000 C   0  0
  -41.6365  -20.7882    0.0000 C   0  0
  -42.1608  -19.3819    0.0000 O   0  0
  -41.2062  -18.2247    0.0000 C   0  0
  -40.1568  -21.0341    0.0000 C   0  0
  -39.6300  -22.4386    0.0000 C   0  0
  -23.9981  -21.6342    0.0000 C   0  0
  -24.0571  -20.1346    0.0000 C   0  0
  -22.7884  -19.3328    0.0000 C   0  0
  -22.8452  -17.8338    0.0000 C   0  0
  -21.5756  -17.0351    0.0000 C   0  0
  -20.2490  -17.7353    0.0000 C   0  0
  -18.9770  -16.9387    0.0000 C   0  0
  -17.6507  -17.6412    0.0000 C   0  0
  -16.1846  -17.3240    0.0000 C   0  0
  -15.1768  -18.4351    0.0000 C   0  0
  -13.7108  -18.1178    0.0000 Cl  0  0
  -15.6352  -19.8633    0.0000 C   0  0
  -14.6291  -20.9771    0.0000 O   0  0
  -15.0897  -22.4055    0.0000 C   0  0
  -14.0837  -23.5192    0.0000 C   0  0
  -12.6171  -23.2045    0.0000 O   0  0
  -14.5443  -24.9476    0.0000 N   0  0
  -13.5383  -26.0613    0.0000 C   0  0
  -12.0706  -25.7479    0.0000 C   0  0
  -11.0646  -26.8616    0.0000 O   0  0
   -9.5969  -26.5482    0.0000 C   0  0
   -9.1351  -25.1210    0.0000 O   0  0
   -8.5908  -27.6619    0.0000 C   0  0
   -7.1231  -27.3485    0.0000 C   0  0
   -6.5382  -25.9811    0.0000 C   0  0
   -7.0458  -25.1195    0.0000 C   0  0
   -5.0460  -26.1336    0.0000 N   0  0
   -4.0488  -25.0155    0.0000 C   0  0
   -4.5195  -23.5912    0.0000 O   0  0
   -2.5791  -25.3196    0.0000 C   0  0
   -1.5790  -24.2016    0.0000 C   0  0
   -0.1108  -24.5086    0.0000 C   0  0
    0.3575  -25.9336    0.0000 C   0  0
    1.3363  -26.1383    0.0000 Cl  0  0
   -0.6425  -27.0517    0.0000 C   0  0
   -2.1107  -26.7447    0.0000 C   0  0
   -4.7304  -27.5992    0.0000 C   0  0
   -3.4292  -28.3455    0.0000 C   0  0
   -3.4250  -29.8455    0.0000 C   0  0
   -4.7219  -30.5992    0.0000 C   0  0
   -4.7207  -32.1000    0.0000 O   0  0
   -6.0187  -32.8519    0.0000 C   0  0
   -6.0230  -29.8529    0.0000 C   0  0
   -6.0273  -28.3529    0.0000 C   0  0
  -17.1012  -20.1805    0.0000 C   0  0
  -18.1090  -19.0695    0.0000 C   0  0
  -19.3772  -19.8721    0.0000 O   0  0
  -19.3172  -21.3717    0.0000 C   0  0
  -17.9889  -22.0704    0.0000 C   0  0
  -16.7206  -21.2694    0.0000 O   0  0
  -17.9288  -23.5700    0.0000 N   0  0
  -16.6005  -24.2687    0.0000 C   0  0
  -16.5405  -25.7683    0.0000 C   0  0
  -17.8087  -26.5709    0.0000 O   0  0
  -17.7487  -28.0705    0.0000 C   0  0
  -16.4204  -28.7675    0.0000 O   0  0
  -19.0169  -28.8731    0.0000 C   0  0
  -18.9568  -30.3728    0.0000 C   0  0
  -17.7084  -31.1810    0.0000 C   0  0
  -16.3056  -30.6498    0.0000 C   0  0
  -18.1117  -32.6258    0.0000 N   0  0
  -17.1788  -33.7982    0.0000 C   0  0
  -17.7288  -35.1937    0.0000 O   0  0
  -15.6944  -33.5770    0.0000 C   0  0
  -14.7587  -34.7495    0.0000 C   0  0
  -13.2755  -34.5255    0.0000 C   0  0
  -12.7280  -33.1290    0.0000 C   0  0
  -11.7392  -32.9796    0.0000 Cl  0  0
  -13.6635  -31.9565    0.0000 C   0  0
  -15.1467  -32.1805    0.0000 C   0  0
  -19.6096  -32.6883    0.0000 C   0  0
  -20.5657  -33.8441    0.0000 C   0  0
  -22.0447  -33.5940    0.0000 C   0  0
  -22.5676  -32.1880    0.0000 C   0  0
  -24.0469  -31.9347    0.0000 O   0  0
  -24.3942  -30.9970    0.0000 C   0  0
  -21.6115  -31.0323    0.0000 C   0  0
  -20.1325  -31.2824    0.0000 C   0  0
  -19.0314  -15.4389    0.0000 C   0  0
  -20.3576  -14.7381    0.0000 C   0  0
  -20.4140  -13.2392    0.0000 C   0  0
  -21.2982  -12.7721    0.0000 Cl  0  0
  -19.1440  -12.4409    0.0000 C   0  0
  -19.1973  -10.9410    0.0000 O   0  0
  -17.9255  -10.1442    0.0000 C   0  0
  -17.9788   -8.6443    0.0000 C   0  0
  -18.8622   -8.1756    0.0000 O   0  0
  -16.7070   -7.8474    0.0000 N   0  0
  -16.7603   -6.3475    0.0000 C   0  0
  -15.4885   -5.5506    0.0000 C   0  0
  -15.5418   -4.0508    0.0000 O   0  0
  -14.2700   -3.2539    0.0000 C   0  0
  -12.9449   -3.9569    0.0000 O   0  0
  -14.3232   -1.7540    0.0000 C   0  0
  -13.0515   -0.9571    0.0000 C   0  0
  -11.6796   -1.5315    0.0000 C   0  0
  -11.4441   -2.5033    0.0000 C   0  0
  -10.7146   -0.3830    0.0000 N   0  0
   -9.2203   -0.4913    0.0000 C   0  0
   -8.3788    0.7503    0.0000 O   0  0
   -8.5650   -1.8415    0.0000 C   0  0
   -7.0690   -1.9521    0.0000 C   0  0
   -6.4168   -3.3029    0.0000 C   0  0
   -7.2605   -4.5432    0.0000 C   0  0
   -6.8256   -5.4437    0.0000 Cl  0  0
   -8.7564   -4.4326    0.0000 C   0  0
   -9.4086   -3.0819    0.0000 C   0  0
  -11.5085    0.8887    0.0000 C   0  0
  -11.0941    2.3304    0.0000 C   0  0
  -12.1353    3.4101    0.0000 C   0  0
  -13.5910    3.0481    0.0000 C   0  0
  -14.6351    4.1263    0.0000 O   0  0
  -16.0903    3.7623    0.0000 C   0  0
  -14.0054    1.6065    0.0000 C   0  0
  -12.9642    0.5268    0.0000 C   0  0
  -17.8177  -13.1416    0.0000 C   0  0
  -17.7614  -14.6406    0.0000 C   0  0
  -16.4329  -15.3388    0.0000 O   0  0
  -15.1634  -14.5383    0.0000 C   0  0
  -13.8349  -15.2365    0.0000 C   0  0
  -13.7759  -16.7354    0.0000 O   0  0
  -12.5654  -14.4360    0.0000 N   0  0
  -11.2370  -15.1342    0.0000 C   0  0
   -9.9675  -14.3337    0.0000 C   0  0
   -8.6390  -15.0319    0.0000 O   0  0
   -7.3695  -14.2314    0.0000 C   0  0
   -7.4285  -12.7325    0.0000 O   0  0
   -6.0410  -14.9297    0.0000 C   0  0
   -4.7715  -14.1291    0.0000 C   0  0
   -4.6944  -12.6438    0.0000 C   0  0
   -5.8549  -11.6935    0.0000 C   0  0
   -3.2411  -12.2722    0.0000 N   0  0
   -2.6909  -10.8786    0.0000 C   0  0
   -1.2071  -10.6586    0.0000 O   0  0
   -3.6234   -9.7027    0.0000 C   0  0
   -3.0746   -8.3067    0.0000 C   0  0
   -4.0090   -7.1333    0.0000 C   0  0
   -5.4924   -7.3559    0.0000 C   0  0
   -6.1154   -6.5737    0.0000 Cl  0  0
   -6.0414   -8.7519    0.0000 C   0  0
   -5.1069   -9.9252    0.0000 C   0  0
   -2.4393  -13.5389    0.0000 C   0  0
   -0.9605  -13.7905    0.0000 C   0  0
   -0.4390  -15.1969    0.0000 C   0  0
   -1.3962  -16.3518    0.0000 C   0  0
   -0.8773  -17.7600    0.0000 O   0  0
   -1.5166  -18.5290    0.0000 C   0  0
   -2.8750  -16.1002    0.0000 C   0  0
   -3.3965  -14.6938    0.0000 C   0  0
  -20.1921  -19.2342    0.0000 C   0  0
  -21.4618  -20.0329    0.0000 C   0  0
  -25.3856  -19.4363    0.0000 C   0  0
  -26.6529  -20.2389    0.0000 C   0  0
  -27.9816  -19.5428    0.0000 C   0  0
  -28.8264  -20.0779    0.0000 Cl  0  0
  -28.0431  -18.0440    0.0000 C   0  0
  -29.3711  -17.3448    0.0000 O   0  0
  -29.4305  -15.8452    0.0000 C   0  0
  -30.7585  -15.1460    0.0000 C   0  0
  -32.0271  -15.9464    0.0000 O   0  0
  -30.8179  -13.6463    0.0000 N   0  0
  -32.1459  -12.9471    0.0000 C   0  0
  -32.2053  -11.4475    0.0000 C   0  0
  -33.5333  -10.7483    0.0000 O   0  0
  -33.5927   -9.2486    0.0000 C   0  0
  -32.3242   -8.4482    0.0000 O   0  0
  -34.9207   -8.5494    0.0000 C   0  0
  -34.9802   -7.0497    0.0000 C   0  0
  -33.7999   -6.1448    0.0000 C   0  0
  -32.3593   -6.5627    0.0000 C   0  0
  -34.3169   -4.7367    0.0000 N   0  0
  -33.4802   -3.4938    0.0000 C   0  0
  -34.1395   -2.1464    0.0000 O   0  0
  -31.9829   -3.5962    0.0000 C   0  0
  -31.1434   -2.3530    0.0000 C   0  0
  -29.6471   -2.4584    0.0000 C   0  0
  -28.9902   -3.8069    0.0000 C   0  0
  -27.9927   -3.8771    0.0000 Cl  0  0
  -29.8296   -5.0500    0.0000 C   0  0
  -31.3259   -4.9447    0.0000 C   0  0
  -35.8150   -4.7934    0.0000 C   0  0
  -36.8600   -3.7174    0.0000 C   0  0
  -38.3144   -4.0843    0.0000 C   0  0
  -38.7239   -5.5274    0.0000 C   0  0
  -40.1783   -5.8975    0.0000 O   0  0
  -40.5857   -7.3411    0.0000 C   0  0
  -37.6789   -6.6034    0.0000 C   0  0
  -36.2244   -6.2365    0.0000 C   0  0
  -26.7759  -17.2414    0.0000 C   0  0
  -25.4472  -17.9375    0.0000 C   0  0
  -24.1810  -17.1317    0.0000 O   0  0
  -24.2447  -15.6323    0.0000 C   0  0
  -22.9786  -14.8265    0.0000 C   0  0
  -21.6486  -15.5202    0.0000 O   0  0
  -23.0423  -13.3270    0.0000 N   0  0
  -21.7761  -12.5213    0.0000 C   0  0
  -21.8399  -11.0218    0.0000 C   0  0
  -20.5737  -10.2161    0.0000 O   0  0
  -20.6375   -8.7166    0.0000 C   0  0
  -19.3712   -7.9125    0.0000 O   0  0
  -21.9675   -8.0212    0.0000 C   0  0
  -22.0312   -6.5218    0.0000 C   0  0
  -20.8536   -5.6134    0.0000 C   0  0
  -19.4119   -6.0272    0.0000 C   0  0
  -21.3747   -4.2068    0.0000 N   0  0
  -20.5416   -2.9615    0.0000 C   0  0
  -19.0449   -3.0609    0.0000 O   0  0
  -21.2038   -1.6146    0.0000 C   0  0
  -20.3716   -0.3666    0.0000 C   0  0
  -21.0362    0.9781    0.0000 C   0  0
  -22.5330    1.0749    0.0000 C   0  0
  -22.9761    1.9714    0.0000 Cl  0  0
  -23.3653   -0.1730    0.0000 C   0  0
  -22.7008   -1.5177    0.0000 C   0  0
  -22.8726   -4.2679    0.0000 C   0  0
  -23.9208   -3.1948    0.0000 C   0  0
  -25.3741   -3.5660    0.0000 C   0  0
  -25.7794   -5.0102    0.0000 C   0  0
  -27.2328   -5.3846    0.0000 O   0  0
  -27.6359   -6.8294    0.0000 C   0  0
  -24.7312   -6.0833    0.0000 C   0  0
  -23.2779   -5.7121    0.0000 C   0  0
  -22.6691  -22.3298    0.0000 C   0  0
  -22.6071  -23.8285    0.0000 C   0  0
  -21.2781  -24.5241    0.0000 Cl  0  0
  -31.3124  -35.5802    0.0000 C   0  0
  -31.6800  -34.1260    0.0000 C   0  0
  -32.2729  -36.7324    0.0000 N   0  0
  -33.7676  -36.6299    0.0000 C   0  0
  -34.6044  -37.8749    0.0000 O   0  0
  -34.4282  -35.2823    0.0000 C   0  0
  -35.9246  -35.1775    0.0000 C   0  0
  -36.5821  -33.8292    0.0000 C   0  0
  -35.7432  -32.5857    0.0000 C   0  0
  -36.1815  -31.6869    0.0000 Cl  0  0
  -34.2469  -32.6905    0.0000 C   0  0
  -33.5894  -34.0387    0.0000 C   0  0
  1  2  1  0
  2  3  1  0
  3  4  2  0
  4  5  1  0
  5  6  2  0
  6  7  1  0
  7  8  2  0
  8  3  1  0
  7  9  1  0
  9 10  1  0
 10 11  1  0
 11 12  2  0
 11 13  1  0
 13 14  1  0
 14 15  1  0
 15 16  1  0
 16 17  1  0
 17 18  2  0
 17 19  1  0
 19 20  1  0
 20 21  1  0
 21 22  2  0
 22 23  1  0
 23 24  1  0
 24 25  1  0
 25 26  1  0
 26 27  2  0
 26 28  1  0
 28 29  1  0
 29 30  1  0
 30 31  1  0
 31 32  1  0
 32 33  2  0
 32 34  1  0
 34 35  1  0
 35 36  2  0
 36 37  1  0
 36 38  1  0
 38 39  1  0
 39 40  2  0
 39 41  1  0
 41 42  2  0
 42 43  1  0
 43 44  2  0
 44 45  1  0
 44 46  1  0
 46 47  2  0
 47 41  1  0
 38 48  1  0
 48 49  2  0
 49 50  1  0
 50 51  2  0
 51 52  1  0
 52 53  1  0
 51 54  1  0
 54 55  2  0
 55 35  1  0
 55 48  1  0
 23 56  2  0
 56 57  1  0
 57 58  1  0
 58 59  2  0
 59 60  1  0
 60 61  2  0
 61 62  1  0
 62 63  1  0
 63 64  2  0
 64 65  1  0
 65 66  1  0
 65 67  2  0
 67 68  1  0
 68 69  1  0
 69 70  1  0
 70 71  2  0
 70 72  1  0
 72 73  1  0
 73 74  1  0
 74 75  1  0
 75 76  1  0
 76 77  2  0
 76 78  1  0
 78 79  1  0
 79 80  2  0
 80 81  1  0
 80 82  1  0
 82 83  1  0
 83 84  2  0
 83 85  1  0
 85 86  2  0
 86 87  1  0
 87 88  2  0
 88 89  1  0
 88 90  1  0
 90 91  2  0
 91 85  1  0
 82 92  1  0
 92 93  2  0
 93 94  1  0
 94 95  2  0
 95 96  1  0
 96 97  1  0
 95 98  1  0
 98 99  2  0
 99 79  1  0
 99 92  1  0
 67100  1  0
100101  2  0
101 63  1  0
101102  1  0
102103  1  0
103104  1  0
104105  2  0
104106  1  0
106107  1  0
107108  1  0
108109  1  0
109110  1  0
110111  2  0
110112  1  0
112113  1  0
113114  2  0
114115  1  0
114116  1  0
116117  1  0
117118  2  0
117119  1  0
119120  2  0
120121  1  0
121122  2  0
122123  1  0
122124  1  0
124125  2  0
125119  1  0
116126  1  0
126127  2  0
127128  1  0
128129  2  0
129130  1  0
130131  1  0
129132  1  0
132133  2  0
133113  1  0
133126  1  0
 62134  1  0
134135  2  0
135136  1  0
136137  1  0
136138  2  0
138139  1  0
139140  1  0
140141  1  0
141142  2  0
141143  1  0
143144  1  0
144145  1  0
145146  1  0
146147  1  0
147148  2  0
147149  1  0
149150  1  0
150151  2  0
151152  1  0
151153  1  0
153154  1  0
154155  2  0
154156  1  0
156157  2  0
157158  1  0
158159  2  0
159160  1  0
159161  1  0
161162  2  0
162156  1  0
153163  1  0
163164  2  0
164165  1  0
165166  2  0
166167  1  0
167168  1  0
166169  1  0
169170  2  0
170150  1  0
170163  1  0
138171  1  0
171172  2  0
172134  1  0
172173  1  0
173174  1  0
174175  1  0
175176  2  0
175177  1  0
177178  1  0
178179  1  0
179180  1  0
180181  1  0
181182  2  0
181183  1  0
183184  1  0
184185  2  0
185186  1  0
185187  1  0
187188  1  0
188189  2  0
188190  1  0
190191  2  0
191192  1  0
192193  2  0
193194  1  0
193195  1  0
195196  2  0
196190  1  0
187197  1  0
197198  2  0
198199  1  0
199200  2  0
200201  1  0
201202  1  0
200203  1  0
203204  2  0
204184  1  0
204197  1  0
 61205  1  0
205206  2  0
206 58  1  0
 57207  1  0
207208  2  0
208209  1  0
209210  1  0
209211  2  0
211212  1  0
212213  1  0
213214  1  0
214215  2  0
214216  1  0
216217  1  0
217218  1  0
218219  1  0
219220  1  0
220221  2  0
220222  1  0
222223  1  0
223224  2  0
224225  1  0
224226  1  0
226227  1  0
227228  2  0
227229  1  0
229230  2  0
230231  1  0
231232  2  0
232233  1  0
232234  1  0
234235  2  0
235229  1  0
226236  1  0
236237  2  0
237238  1  0
238239  2  0
239240  1  0
240241  1  0
239242  1  0
242243  2  0
243223  1  0
243236  1  0
211244  1  0
244245  2  0
245207  1  0
245246  1  0
246247  1  0
247248  1  0
248249  2  0
248250  1  0
250251  1  0
251252  1  0
252253  1  0
253254  1  0
254255  2  0
254256  1  0
256257  1  0
257258  2  0
258259  1  0
258260  1  0
260261  1  0
261262  2  0
261263  1  0
263264  2  0
264265  1  0
265266  2  0
266267  1  0
266268  1  0
268269  2  0
269263  1  0
260270  1  0
270271  2  0
271272  1  0
272273  2  0
273274  1  0
274275  1  0
273276  1  0
276277  2  0
277257  1  0
277270  1  0
 56278  1  0
278279  2  0
279 21  1  0
279280  1  0
  9281  2  0
281282  1  0
281283  1  0
283  6  1  0
283284  1  0
284285  2  0
284286  1  0
286287  2  0
287288  1  0
288289  2  0
289290  1  0
289291  1  0
291292  2  0
292286  1  0
M  END
> <Smiles>
COc1ccc2c(c1)c(CC(=O)OCCNC(=O)COc1cc(OCC(=O)NCCOC(=O)Cc3c(C)n(C(=O)c4ccc(Cl)cc4)c4ccc(OC)cc34)c(C(c3ccc(C(c4cc(Cl)c(OCC(=O)NCCOC(=O)Cc5c(C)n(C(=O)c6ccc(Cl)cc6)c6ccc(OC)cc56)cc4OCC(=O)NCCOC(=O)Cc4c(C)n
(C(=O)c5ccc(Cl)cc5)c5ccc(OC)cc45)c4cc(Cl)c(OCC(=O)NCCOC(=O)Cc5c(C)n(C(=O)c6ccc(Cl)cc6)c6ccc(OC)cc56)cc4OCC(=O)NCCOC(=O)Cc4c(C)n(C(=O)c5ccc(Cl)cc5)c5ccc(OC)cc45)cc3)c3cc(Cl)c(OCC(=O)NCCOC(=O)Cc4c(C)n(C
(=O)c5ccc(Cl)cc5)c5ccc(OC)cc45)cc3OCC(=O)NCCOC(=O)Cc3c(C)n(C(=O)c4ccc(Cl)cc4)c4ccc(OC)cc34)cc1Cl)c(C)n2C(=O)c1ccc(Cl)cc1

> <ID>
CHEMBL4643442

> <standard_value>
23110

> <IC50_uM>
23.11

> <Activity>
No

> <pIC50>
4.636200055

> <BCI>
0

$$$$

  SciTegic03012415362D

 69 74  0  0  1  0            999 V2000
    1.8479    4.6057    0.0000 C   0  0
    2.3109    3.1790    0.0000 C   0  0
    3.7375    2.7155    0.0000 C   0  0
    4.9510    3.5971    0.0000 O   0  0
    3.7375    1.2155    0.0000 O   0  0
    2.3083    0.7500    0.0000 C   0  0  1  0  0  0
    1.4266    1.9635    0.0000 C   0  0  1  0  0  0
    0.0000    2.4271    0.0000 C   0  0
   -1.4266    1.9635    0.0000 C   0  0
   -2.3083    0.7500    0.0000 C   0  0
   -3.7419    1.2126    0.0000 C   0  0
   -4.0563    2.6793    0.0000 O   0  0
   -4.8559    0.2068    0.0000 O   0  0
   -6.2842    0.6677    0.0000 C   0  0
   -7.3981   -0.3381    0.0000 C   0  0
   -8.8264    0.1228    0.0000 O   0  0
   -9.9403   -0.8829    0.0000 C   0  0
  -11.3686   -0.4221    0.0000 C   0  0
  -12.4826   -1.4278    0.0000 O   0  0
  -13.9109   -0.9669    0.0000 C   0  0
  -15.0248   -1.9727    0.0000 C   0  0
  -16.4531   -1.5118    0.0000 O   0  0
  -17.5671   -2.5176    0.0000 C   0  0
  -18.9954   -2.0567    0.0000 C   0  0
  -20.1093   -3.0625    0.0000 O   0  0
  -21.5376   -2.6016    0.0000 C   0  0
  -22.6515   -3.6074    0.0000 C   0  0
  -24.0798   -3.1465    0.0000 O   0  0
  -25.1938   -4.1523    0.0000 C   0  0
  -26.6221   -3.6914    0.0000 C   0  0
  -27.7360   -4.6972    0.0000 O   0  0
  -29.1643   -4.2363    0.0000 C   0  0
  -30.2783   -5.2421    0.0000 C   0  0
  -31.7066   -4.7812    0.0000 O   0  0
  -32.8205   -5.7870    0.0000 C   0  0
  -34.2488   -5.3261    0.0000 C   0  0
  -35.3627   -6.3319    0.0000 O   0  0
  -36.7910   -5.8710    0.0000 C   0  0
  -37.9050   -6.8768    0.0000 C   0  0
  -39.3333   -6.4159    0.0000 O   0  0
  -40.4472   -7.4217    0.0000 C   0  0
  -41.8755   -6.9608    0.0000 C   0  0
  -42.9895   -7.9666    0.0000 O   0  0
  -44.4178   -7.5057    0.0000 C   0  0
  -44.7321   -6.0390    0.0000 O   0  0
  -45.5317   -8.5115    0.0000 C   0  0
  -46.8687   -7.7980    0.0000 C   0  0
  -48.3600   -7.9598    0.0000 C   0  0
  -49.4713   -8.9673    0.0000 C   0  0
  -49.7782  -10.4356    0.0000 C   0  0  1  0  0  0
  -49.9668  -11.9237    0.0000 C   0  0
  -50.6934  -11.5805    0.0000 O   0  0
  -49.1634  -11.8038    0.0000 C   0  0  1  0  0  0
  -47.8619  -12.5494    0.0000 C   0  0  1  0  0  0
  -48.1684  -14.0210    0.0000 O   0  0
  -46.8668  -14.7666    0.0000 C   0  0
  -46.7050  -16.2578    0.0000 O   0  0
  -45.7555  -13.7591    0.0000 C   0  0
  -44.2874  -14.0665    0.0000 C   0  0
  -46.3706  -12.3876    0.0000 C   0  0  2  0  0  0
  -45.2593  -11.3801    0.0000 C   0  0
  -44.9524   -9.9119    0.0000 C   0  0
   -2.3083   -0.7500    0.0000 C   0  0
   -1.4266   -1.9635    0.0000 C   0  0
    0.0000   -2.4271    0.0000 C   0  0
    1.4266   -1.9635    0.0000 C   0  0  1  0  0  0
    2.8116   -1.3875    0.0000 C   0  0
    2.8750   -2.1886    0.0000 O   0  0
    2.3083   -0.7500    0.0000 C   0  0  1  0  0  0
  1  2  2  0
  2  3  1  0
  3  4  2  0
  3  5  1  0
  6  5  1  6
  6  7  1  0
  7  2  1  0
  7  8  1  1
  8  9  1  0
  9 10  1  0
 10 11  1  0
 11 12  2  0
 11 13  1  0
 13 14  1  0
 14 15  1  0
 15 16  1  0
 16 17  1  0
 17 18  1  0
 18 19  1  0
 19 20  1  0
 20 21  1  0
 21 22  1  0
 22 23  1  0
 23 24  1  0
 24 25  1  0
 25 26  1  0
 26 27  1  0
 27 28  1  0
 28 29  1  0
 29 30  1  0
 30 31  1  0
 31 32  1  0
 32 33  1  0
 33 34  1  0
 34 35  1  0
 35 36  1  0
 36 37  1  0
 37 38  1  0
 38 39  1  0
 39 40  1  0
 40 41  1  0
 41 42  1  0
 42 43  1  0
 43 44  1  0
 44 45  2  0
 44 46  1  0
 46 47  2  0
 47 48  1  0
 48 49  1  0
 49 50  1  0
 50 51  1  1
 50 52  1  0
 53 52  1  6
 53 50  1  0
 53 54  1  0
 54 55  1  6
 55 56  1  0
 56 57  2  0
 56 58  1  0
 58 59  2  0
 58 60  1  0
 60 54  1  0
 60 61  1  1
 61 62  1  0
 62 46  1  0
 10 63  2  0
 63 64  1  0
 64 65  1  0
 65 66  1  0
 66 67  1  1
 66 68  1  0
 69 68  1  6
 69  6  1  0
 69 66  1  0
M  END
> <Smiles>
C=C1C(=O)O[C@H]2[C@H]1CC/C(C(=O)OCCOCCOCCOCCOCCOCCOCCOCCOCCOCCOC(=O)/C1=C/CC[C@@]3(C)O[C@H]3[C@H]3OC(=O)C(=C)[C@@H]3CC1)=C\CC[C@@]1(C)O[C@@H]21

> <ID>
CHEMBL4459552

> <standard_value>
23330

> <IC50_uM>
23.33

> <Activity>
No

> <pIC50>
4.632085261

> <BCI>
0

$$$$

  SciTegic03012415362D

 23 26  0  0  0  0            999 V2000
    2.5981   -1.5000    0.0000 O   0  0
    1.2990   -0.7500    0.0000 C   0  0
    1.2990    0.7500    0.0000 C   0  0
    0.0000    1.5000    0.0000 C   0  0
    0.0000    3.0008    0.0000 C   0  0
    1.2978    3.7529    0.0000 C   0  0
    1.2954    5.2529    0.0000 C   0  0
   -0.0048    6.0009    0.0000 C   0  0
   -1.3026    5.2488    0.0000 C   0  0
   -1.3002    3.7488    0.0000 C   0  0
   -1.2990    0.7500    0.0000 N   0  0
   -1.2990   -0.7500    0.0000 C   0  0
   -2.4133   -1.7530    0.0000 C   0  0
   -1.8032   -3.1233    0.0000 C   0  0
   -2.5536   -4.4230    0.0000 C   0  0
   -4.0444   -4.5346    0.0000 C   0  0
   -4.6946   -5.8864    0.0000 C   0  0
   -3.8489   -7.1253    0.0000 C   0  0
   -2.3532   -7.0124    0.0000 C   0  0
   -1.5076   -8.2514    0.0000 Cl  0  0
   -1.7031   -5.6606    0.0000 C   0  0
   -0.3114   -2.9665    0.0000 N   0  0
    0.0000   -1.5000    0.0000 N   0  0
  1  2  2  0
  2  3  1  0
  3  4  2  0
  4  5  1  0
  5  6  2  0
  6  7  1  0
  7  8  2  0
  8  9  1  0
  9 10  2  0
 10  5  1  0
  4 11  1  0
 11 12  1  0
 12 13  2  0
 13 14  1  0
 14 15  1  0
 15 16  2  0
 16 17  1  0
 17 18  2  0
 18 19  1  0
 19 20  1  0
 19 21  2  0
 21 15  1  0
 14 22  2  0
 22 23  1  0
 23  2  1  0
 23 12  1  0
M  END
> <Smiles>
O=c1cc(-c2ccccc2)[nH]c2cc(-c3cccc(Cl)c3)nn12

> <ID>
CHEMBL4861410

> <standard_value>
23340

> <IC50_uM>
23.34

> <Activity>
No

> <pIC50>
4.631899148

> <BCI>
0

$$$$

  SciTegic03012415362D

 41 47  0  0  1  0            999 V2000
    0.2851   -9.8149    0.0000 C   0  0
    1.6582   -9.2112    0.0000 C   0  0  1  0  0  0
    1.8216   -7.7193    0.0000 C   0  0
    0.6118   -6.8311    0.0000 C   0  0
    0.7748   -5.3417    0.0000 C   0  0  1  0  0  0
    2.0786   -4.6001    0.0000 O   0  0
    1.7758   -3.1329    0.0000 C   0  0  1  0  0  0
    2.3947   -1.7666    0.0000 C   0  0
    1.2990   -0.7500    0.0000 C   0  0  1  0  0  0
    1.2990    0.7500    0.0000 C   0  0  2  0  0  0
    2.5981    1.5000    0.0000 C   0  0
    2.5981    3.0000    0.0000 C   0  0
    1.2990    3.7500    0.0000 C   0  0  2  0  0  0
    1.2990    5.2500    0.0000 C   0  0
    0.0000    6.0000    0.0000 C   0  0  1  0  0  0
    0.0030    7.5008    0.0000 O   0  0
    1.3038    8.2494    0.0000 C   0  0
    1.3069    9.7502    0.0000 C   0  0
    2.6059   10.5003    0.0000 C   0  0
    2.6060   12.0003    0.0000 C   0  0
    1.3069   12.7503    0.0000 C   0  0
    0.0079   12.0003    0.0000 C   0  0
    0.0079   10.5003    0.0000 C   0  0
   -1.2991    5.2500    0.0000 C   0  0
   -1.2991    3.7500    0.0000 C   0  0
    0.0000    3.0000    0.0000 C   0  0  1  0  0  0
   -1.2991    2.2500    0.0000 C   0  0
    0.0000    1.5000    0.0000 C   0  0  1  0  0  0
   -1.2990    0.7500    0.0000 C   0  0
   -1.2990   -0.7500    0.0000 C   0  0
    0.0000   -1.5000    0.0000 C   0  0  1  0  0  0
   -1.2212   -2.3711    0.0000 C   0  0
    0.2851   -2.9666    0.0000 C   0  0  1  0  0  0
   -0.3335   -4.3309    0.0000 C   0  0  2  0  0  0
   -1.8027   -4.6331    0.0000 C   0  0
    2.8680  -10.0993    0.0000 C   0  0
    2.7047  -11.5912    0.0000 N   0  0
    3.8154  -12.5803    0.0000 C   0  0
    3.1966  -13.9467    0.0000 C   0  0
    1.7058  -13.7804    0.0000 C   0  0
    1.4033  -12.3112    0.0000 C   0  0
  2  1  1  1
  2  3  1  0
  3  4  1  0
  5  4  1  6
  5  6  1  0
  7  6  1  6
  7  8  1  0
  9  8  1  6
  9 10  1  0
 10 11  1  1
 11 12  1  0
 13 12  1  1
 13 14  1  0
 14 15  1  0
 15 16  1  6
 16 17  1  0
 17 18  1  0
 18 19  2  0
 19 20  1  0
 20 21  2  0
 21 22  1  0
 22 23  2  0
 23 18  1  0
 15 24  1  0
 24 25  1  0
 25 26  1  0
 26 13  1  0
 26 27  1  6
 26 28  1  0
 28 10  1  0
 28 29  1  6
 29 30  1  0
 30 31  1  0
 31  9  1  0
 31 32  1  6
 33 31  1  6
 33  7  1  0
 33 34  1  0
 34  5  1  0
 34 35  1  1
  2 36  1  0
 36 37  1  0
 37 38  1  0
 38 39  1  0
 39 40  1  0
 40 41  1  0
 41 37  1  0
M  END
> <Smiles>
C[C@@H](CC[C@H]1O[C@H]2C[C@H]3[C@@H]4CC[C@@H]5C[C@@H](OCc6ccccc6)CC[C@]5(C)[C@H]4CC[C@]3(C)[C@H]2[C@@H]1C)CN1CCCC1

> <ID>
CHEMBL4071049

> <standard_value>
23570

> <IC50_uM>
23.57

> <Activity>
No

> <pIC50>
4.627640417

> <BCI>
0

$$$$

  SciTegic03012415362D

 28 29  0  0  1  0            999 V2000
    5.2153   -5.9916    0.0000 C   0  0
    3.9139   -5.2457    0.0000 C   0  0
    2.6175   -6.0002    0.0000 C   0  0
    3.9082   -3.7449    0.0000 C   0  0
    2.6060   -2.9986    0.0000 C   0  0
    2.6003   -1.4977    0.0000 C   0  0  1  0  0  0
    3.8990   -0.7455    0.0000 O   0  0
    5.2003   -1.4932    0.0000 C   0  0
    5.2029   -2.9932    0.0000 O   0  0
    6.4990   -0.7409    0.0000 C   0  0
    7.8003   -1.4887    0.0000 C   0  0
    9.1005   -2.2366    0.0000 C   0  0
    7.8029   -2.9887    0.0000 C   0  0
    9.0983   -0.7368    0.0000 O   0  0
    1.2990   -0.7500    0.0000 C   0  0
    1.2990    0.7500    0.0000 C   0  0
    0.0000    1.5000    0.0000 C   0  0
    0.0000    3.0000    0.0000 O   0  0
   -1.2990    0.7500    0.0000 C   0  0
   -2.5981    1.5000    0.0000 C   0  0
   -2.5981    3.0000    0.0000 O   0  0
   -3.8971    0.7500    0.0000 C   0  0
   -3.8971   -0.7500    0.0000 C   0  0
   -2.5981   -1.5000    0.0000 C   0  0
   -2.5981   -3.0000    0.0000 O   0  0
   -1.2990   -0.7500    0.0000 C   0  0
    0.0000   -1.5000    0.0000 C   0  0
    0.0000   -3.0000    0.0000 O   0  0
  1  2  1  0
  2  3  1  0
  2  4  2  0
  4  5  1  0
  6  5  1  6
  6  7  1  0
  7  8  1  0
  8  9  2  0
  8 10  1  0
 10 11  1  0
 11 12  1  0
 11 13  1  0
 11 14  1  0
  6 15  1  0
 15 16  2  0
 16 17  1  0
 17 18  2  0
 17 19  1  0
 19 20  2  0
 20 21  1  0
 20 22  1  0
 22 23  2  0
 23 24  1  0
 24 25  1  0
 24 26  2  0
 26 19  1  0
 26 27  1  0
 27 15  1  0
 27 28  2  0
M  END
> <Smiles>
CC(C)=CC[C@@H](OC(=O)CC(C)(C)O)C1=CC(=O)c2c(O)ccc(O)c2C1=O

> <ID>
CHEMBL397309

> <standard_value>
23600

> <IC50_uM>
23.6

> <Activity>
No

> <pIC50>
4.627087997

> <BCI>
0

$$$$

  SciTegic03012415362D

 40 45  0  0  1  0            999 V2000
    3.4055   -6.1645    0.0000 C   0  0
    2.3610   -5.0880    0.0000 C   0  0
    2.7715   -3.6452    0.0000 C   0  0
    0.9054   -5.4536    0.0000 C   0  0
   -0.1397   -4.3764    0.0000 C   0  0
    0.2851   -2.9666    0.0000 C   0  0  3  0  0  0
    1.7758   -3.1329    0.0000 O   0  0
    2.3947   -1.7666    0.0000 C   0  0
    1.2990   -0.7500    0.0000 C   0  0  2  0  0  0
    1.2990    0.7500    0.0000 C   0  0  1  0  0  0
    2.6003    1.4978    0.0000 C   0  0
    3.8990    0.7455    0.0000 N   0  0
    5.2003    1.4932    0.0000 C   0  0
    6.4983    0.7414    0.0000 C   0  0
    5.2029    2.9932    0.0000 C   0  0
    3.8933   -0.7553    0.0000 C   0  0
    3.0257   -1.2526    0.0000 C   0  0
    5.1898   -1.5098    0.0000 C   0  0
    0.0000    1.5000    0.0000 C   0  0  1  0  0  0
   -1.2990    0.7500    0.0000 C   0  0
   -1.2990   -0.7500    0.0000 C   0  0
   -2.5969   -1.5137    0.0000 C   0  0
   -3.8988   -0.7687    0.0000 O   0  0
   -2.5976   -3.0137    0.0000 C   0  0
   -3.8970   -3.7631    0.0000 C   0  0
   -5.1957   -3.0124    0.0000 O   0  0
   -3.8977   -5.2631    0.0000 C   0  0
   -2.5990   -6.0137    0.0000 C   0  0
   -1.2996   -5.2643    0.0000 C   0  0
   -1.2989   -3.7643    0.0000 C   0  0
    0.0005   -3.0149    0.0000 O   0  0
    0.0000   -1.5000    0.0000 C   0  0  2  0  0  0
   -0.0009   -6.0149    0.0000 C   0  0
   -0.0017   -7.5149    0.0000 C   0  0
   -1.3010   -8.2643    0.0000 C   0  0
    0.0150   -8.9841    0.0000 C   0  0
   -2.6177   -8.9830    0.0000 C   0  0
   -2.5997   -7.5137    0.0000 O   0  0
   -1.2151   -0.4213    0.0000 C   0  0
   -2.7149   -0.3978    0.0000 O   0  0
  1  2  1  0
  2  3  1  0
  2  4  2  0
  4  5  1  0
  6  5  1  4
  6  7  1  0
  7  8  1  0
  9  8  1  1
  9 10  1  0
 10 11  1  6
 11 12  1  0
 12 13  1  0
 13 14  1  0
 13 15  1  0
 12 16  1  0
 16 17  1  0
 16 18  1  0
 10 19  1  0
 19 20  1  6
 20 21  2  0
 21 22  1  0
 22 23  2  0
 22 24  1  0
 24 25  2  0
 25 26  1  0
 25 27  1  0
 27 28  2  0
 28 29  1  0
 29 30  2  0
 30 24  1  0
 30 31  1  0
 32 31  1  6
 32 21  1  0
 32  9  1  0
 32  6  1  0
 29 33  1  0
 33 34  2  0
 34 35  1  0
 35 36  1  0
 35 37  1  0
 35 38  1  0
 38 28  1  0
 19 39  1  0
 39  6  1  0
 39 40  2  0
M  END
> <Smiles>
CC(C)=CCC12OC[C@@H]3[C@@H](CN(C(C)C)C(C)C)[C@@H](C=C4C(=O)c5c(O)cc6c(c5O[C@]431)C=CC(C)(C)O6)C2=O

> <ID>
CHEMBL2336114

> <standard_value>
23800

> <IC50_uM>
23.8

> <Activity>
No

> <pIC50>
4.623423043

> <BCI>
0

$$$$

  SciTegic03012415362D

 26 30  0  0  1  0            999 V2000
   -0.2478   -8.1014    0.0000 C   0  0
   -0.8612   -6.7326    0.0000 C   0  0
   -2.3534   -6.5798    0.0000 C   0  0
    0.0174   -5.5157    0.0000 C   0  0
   -0.5963   -4.1461    0.0000 C   0  0
    0.2851   -2.9666    0.0000 C   0  0  3  0  0  0
    1.7758   -3.1329    0.0000 O   0  0
    2.3947   -1.7666    0.0000 C   0  0
    1.2990   -0.7500    0.0000 C   0  0  2  0  0  0
    1.2990    0.7500    0.0000 C   0  0
    0.0000    1.5000    0.0000 C   0  0  1  0  0  0
   -1.2990    0.7500    0.0000 C   0  0
   -1.2990   -0.7500    0.0000 C   0  0
   -2.5969   -1.5137    0.0000 C   0  0
   -3.8988   -0.7687    0.0000 O   0  0
   -2.5976   -3.0137    0.0000 C   0  0
   -3.8970   -3.7631    0.0000 C   0  0
   -5.1957   -3.0124    0.0000 O   0  0
   -3.8977   -5.2631    0.0000 C   0  0
   -2.5990   -6.0137    0.0000 C   0  0
   -1.2996   -5.2643    0.0000 C   0  0
   -1.2989   -3.7643    0.0000 C   0  0
    0.0005   -3.0149    0.0000 O   0  0
    0.0000   -1.5000    0.0000 C   0  0  2  0  0  0
   -1.2151   -0.4213    0.0000 C   0  0
   -2.7149   -0.3978    0.0000 O   0  0
  1  2  1  0
  2  3  1  0
  2  4  2  0
  4  5  1  0
  6  5  1  4
  6  7  1  0
  7  8  1  0
  9  8  1  1
  9 10  1  0
 11 10  1  6
 11 12  1  0
 12 13  2  0
 13 14  1  0
 14 15  2  0
 14 16  1  0
 16 17  2  0
 17 18  1  0
 17 19  1  0
 19 20  2  0
 20 21  1  0
 21 22  2  0
 22 16  1  0
 22 23  1  0
 24 23  1  6
 24 13  1  0
 24  9  1  0
 24  6  1  0
 11 25  1  0
 25  6  1  0
 25 26  2  0
M  END
> <Smiles>
CC(C)=CCC12OC[C@@H]3C[C@@H](C=C4C(=O)c5c(O)cccc5O[C@]431)C2=O

> <ID>
CHEMBL2336593

> <standard_value>
23900

> <IC50_uM>
23.9

> <Activity>
No

> <pIC50>
4.621602099

> <BCI>
0

$$$$

  SciTegic03012415362D

 39 43  0  0  0  0            999 V2000
   -4.6306   -4.5711    0.0000 C   0  0
   -4.1674   -5.9978    0.0000 C   0  0
   -5.1713   -7.1123    0.0000 C   0  0
   -4.7081   -8.5390    0.0000 C   0  0
   -3.2409   -8.8512    0.0000 C   0  0
   -2.7745  -10.2777    0.0000 C   0  0
   -3.7764  -11.3939    0.0000 O   0  0
   -1.3061  -10.5879    0.0000 N   0  0
   -0.8396  -12.0144    0.0000 C   0  0
    0.6276  -12.3266    0.0000 C   0  0
    1.0908  -13.7533    0.0000 C   0  0
    0.0869  -14.8678    0.0000 C   0  0
    0.5534  -16.2943    0.0000 C   0  0
    2.0218  -16.6046    0.0000 N   0  0
    2.4901  -18.0296    0.0000 C   0  0
    3.9584  -18.3367    0.0000 C   0  0
    4.9584  -17.2186    0.0000 N   0  0
    6.4266  -17.5257    0.0000 C   0  0
    4.4902  -15.7936    0.0000 C   0  0
    3.0220  -15.4865    0.0000 C   0  0
   -1.3802  -14.5557    0.0000 C   0  0
   -2.3847  -15.6709    0.0000 C   0  0
   -1.9223  -17.0978    0.0000 F   0  0
   -3.8517  -15.3583    0.0000 F   0  0
   -3.3891  -16.7849    0.0000 F   0  0
   -1.8435  -13.1291    0.0000 C   0  0
   -2.2370   -7.7366    0.0000 C   0  0
   -2.7002   -6.3100    0.0000 C   0  0
   -1.6958   -5.1948    0.0000 C   0  0
   -0.6913   -4.0797    0.0000 C   0  0
    0.3114   -2.9665    0.0000 C   0  0
    1.8032   -3.1233    0.0000 C   0  0
    2.4133   -1.7530    0.0000 N   0  0
    1.2990   -0.7500    0.0000 C   0  0
    1.2990    0.7500    0.0000 C   0  0
    0.0000    1.5000    0.0000 C   0  0
   -1.2990    0.7500    0.0000 C   0  0
   -1.2990   -0.7500    0.0000 N   0  0
    0.0000   -1.5000    0.0000 N   0  0
  1  2  1  0
  2  3  2  0
  3  4  1  0
  4  5  2  0
  5  6  1  0
  6  7  2  0
  6  8  1  0
  8  9  1  0
  9 10  2  0
 10 11  1  0
 11 12  2  0
 12 13  1  0
 13 14  1  0
 14 15  1  0
 15 16  1  0
 16 17  1  0
 17 18  1  0
 17 19  1  0
 19 20  1  0
 20 14  1  0
 12 21  1  0
 21 22  1  0
 22 23  1  0
 22 24  1  0
 22 25  1  0
 21 26  2  0
 26  9  1  0
  5 27  1  0
 27 28  2  0
 28  2  1  0
 28 29  1  0
 29 30  3  0
 30 31  1  0
 31 32  2  0
 32 33  1  0
 33 34  2  0
 34 35  1  0
 35 36  2  0
 36 37  1  0
 37 38  2  0
 38 39  1  0
 39 31  1  0
 39 34  1  0
M  END
> <Smiles>
Cc1ccc(C(=O)Nc2ccc(CN3CCN(C)CC3)c(C(F)(F)F)c2)cc1C#Cc1cnc2cccnn12

> <ID>
CHEMBL1171837

> <standard_value>
24066.79

> <IC50_uM>
24.06679

> <Activity>
No

> <pIC50>
4.618581832

> <BCI>
0

$$$$

  SciTegic03012415362D

 24 25  0  0  1  0            999 V2000
    7.7996   -1.4883    0.0000 C   0  0
    6.4990   -0.7409    0.0000 C   0  0
    5.2003   -1.4932    0.0000 C   0  0
    3.9005   -0.7446    0.0000 C   0  0
    5.2015   -2.9940    0.0000 C   0  0
    6.5014   -3.7426    0.0000 O   0  0
    3.9028   -3.7463    0.0000 O   0  0
    3.9040   -5.2471    0.0000 C   0  0  1  0  0  0
    5.2052   -5.9934    0.0000 C   0  0
    5.2095   -7.4934    0.0000 C   0  0  1  0  0  0
    6.5106   -8.2397    0.0000 O   0  0
    3.9126   -8.2471    0.0000 C   0  0
    3.9168   -9.7471    0.0000 C   0  0
    2.6199  -10.5008    0.0000 C   0  0
    2.6242  -12.0008    0.0000 O   0  0
    1.3188   -9.7545    0.0000 C   0  0
    0.0196  -10.5060    0.0000 C   0  0
   -1.2805   -9.7578    0.0000 C   0  0
    0.0213  -12.0060    0.0000 C   0  0
    1.3145   -8.2545    0.0000 C   0  0
    2.6114   -7.5008    0.0000 C   0  0  1  0  0  0
    1.3102   -6.7545    0.0000 C   0  0
    2.6071   -6.0008    0.0000 C   0  0  1  0  0  0
    1.3060   -5.2545    0.0000 C   0  0
  1  2  1  0
  2  3  2  0
  3  4  1  0
  3  5  1  0
  5  6  2  0
  5  7  1  0
  8  7  1  1
  8  9  1  0
  9 10  1  0
 10 11  1  1
 10 12  1  0
 12 13  2  0
 13 14  1  0
 14 15  2  0
 14 16  1  0
 16 17  2  0
 17 18  1  0
 17 19  1  0
 16 20  1  0
 20 21  1  0
 21 12  1  0
 21 22  1  1
 21 23  1  0
 23  8  1  0
 23 24  1  1
M  END
> <Smiles>
C/C=C(/C)C(=O)O[C@H]1C[C@@H](O)C2=CC(=O)C(=C(C)C)C[C@]2(C)[C@H]1C

> <ID>
CHEMBL501967

> <standard_value>
24100

> <IC50_uM>
24.1

> <Activity>
No

> <pIC50>
4.617982957

> <BCI>
0

$$$$

  SciTegic03012415362D

 26 26  0  0  0  0            999 V2000
    6.4991   -0.7671    0.0000 C   0  0
    5.1972   -1.5121    0.0000 C   0  0
    5.1937   -2.5121    0.0000 C   0  0
    3.8999   -0.7576    0.0000 C   0  0
    3.9051    0.7424    0.0000 O   0  0
    2.5973   -1.5031    0.0000 N   0  0
    2.5951   -3.0039    0.0000 C   0  0
    3.8933   -3.7570    0.0000 C   0  0
    4.7602   -3.2585    0.0000 O   0  0
    3.8912   -5.2578    0.0000 N   0  0
    5.1894   -6.0109    0.0000 C   0  0
    5.1873   -7.5117    0.0000 C   0  0
    6.4848   -8.2644    0.0000 N   0  0
    1.2990   -0.7500    0.0000 C   0  0
    1.2990    0.7500    0.0000 C   0  0
    0.0000    1.5000    0.0000 C   0  0
   -1.2990    0.7500    0.0000 C   0  0
   -2.5973    1.5031    0.0000 N   0  3
   -2.5951    3.0031    0.0000 O   0  0
   -3.8976    0.7553    0.0000 O   0  5
   -1.2990   -0.7500    0.0000 C   0  0
   -2.5988   -1.5004    0.0000 C   0  0
   -3.8983   -0.7513    0.0000 F   0  0
   -2.5983   -3.0004    0.0000 F   0  0
   -3.8975   -2.2510    0.0000 F   0  0
    0.0000   -1.5000    0.0000 C   0  0
  1  2  1  0
  2  3  1  0
  2  4  1  0
  4  5  2  0
  4  6  1  0
  6  7  1  0
  7  8  1  0
  8  9  2  0
  8 10  1  0
 10 11  1  0
 11 12  1  0
 12 13  1  0
  6 14  1  0
 14 15  2  0
 15 16  1  0
 16 17  2  0
 17 18  1  0
 18 19  2  0
 18 20  1  0
 17 21  1  0
 21 22  1  0
 22 23  1  0
 22 24  1  0
 22 25  1  0
 21 26  2  0
 26 14  1  0
M  CHG  2  18   1  20  -1
M  END
> <Smiles>
CC(C)C(=O)N(CC(=O)NCCN)c1ccc([N+](=O)[O-])c(C(F)(F)F)c1

> <ID>
CHEMBL4742877

> <standard_value>
24100

> <IC50_uM>
24.1

> <Activity>
No

> <pIC50>
4.617982957

> <BCI>
0

$$$$

  SciTegic03012415362D

 23 24  0  0  0  0            999 V2000
    5.1937   -3.0093    0.0000 O   0  0
    3.8933   -3.7570    0.0000 C   0  0
    2.5951   -3.0039    0.0000 C   0  0
    2.5973   -1.5031    0.0000 C   0  0
    1.2990   -0.7500    0.0000 C   0  0
    1.2990    0.7500    0.0000 C   0  0
    0.0000    1.5000    0.0000 C   0  0
   -1.2990    0.7500    0.0000 C   0  0
   -2.5981    1.5000    0.0000 O   0  0
   -1.2990   -0.7500    0.0000 C   0  0
   -2.5981   -1.5000    0.0000 O   0  0
    0.0000   -1.5000    0.0000 C   0  0
    3.8912   -5.2578    0.0000 O   0  0
    5.1894   -6.0109    0.0000 C   0  0
    5.1873   -7.5117    0.0000 C   0  0
    6.4855   -8.2648    0.0000 C   0  0
    6.4855   -9.7648    0.0000 C   0  0
    7.7846  -10.5149    0.0000 C   0  0
    9.0836   -9.7649    0.0000 C   0  0
   10.3826  -10.5149    0.0000 O   0  0
    9.0836   -8.2649    0.0000 C   0  0
   10.3827   -7.5149    0.0000 O   0  0
    7.7846   -7.5149    0.0000 C   0  0
  1  2  2  0
  2  3  1  0
  3  4  1  0
  4  5  1  0
  5  6  2  0
  6  7  1  0
  7  8  2  0
  8  9  1  0
  8 10  1  0
 10 11  1  0
 10 12  2  0
 12  5  1  0
  2 13  1  0
 13 14  1  0
 14 15  1  0
 15 16  1  0
 16 17  2  0
 17 18  1  0
 18 19  2  0
 19 20  1  0
 19 21  1  0
 21 22  1  0
 21 23  2  0
 23 16  1  0
M  END
> <Smiles>
O=C(CCc1ccc(O)c(O)c1)OCCc1ccc(O)c(O)c1

> <ID>
CHEMBL3357165

> <standard_value>
24290

> <IC50_uM>
24.29

> <Activity>
No

> <pIC50>
4.614572485

> <BCI>
0

$$$$

  SciTegic03012415362D

244256  0  0  0  0            999 V2000
    3.9802   -8.2179    0.0000 O   0  0
    2.5023   -7.9610    0.0000 C   0  0
    1.9861   -6.5517    0.0000 C   0  0
    2.4956   -5.1400    0.0000 O   0  0
    1.5286   -3.9923    0.0000 C   0  0
    2.0416   -2.5828    0.0000 C   0  0
    1.0774   -1.4337    0.0000 C   0  0
    1.5936   -0.0244    0.0000 O   0  0
    3.0720    0.2341    0.0000 C   0  0
    3.5882    1.6433    0.0000 C   0  0
    2.9467    2.4105    0.0000 O   0  0
    5.0666    1.9019    0.0000 N   0  0
    5.5828    3.3111    0.0000 C   0  0
    7.0612    3.5696    0.0000 C   0  0
    7.5774    4.9789    0.0000 O   0  0
    9.0558    5.2374    0.0000 C   0  0
   10.0180    4.0867    0.0000 O   0  0
    9.5720    6.6467    0.0000 C   0  0
   11.0504    6.9052    0.0000 C   0  0
   11.5666    8.3144    0.0000 C   0  0
   13.0450    8.5730    0.0000 C   0  0
   13.5630    9.9807    0.0000 C   0  0
   15.0411   10.2361    0.0000 C   0  0
   16.0013    9.0837    0.0000 C   0  0
   17.4807    9.3362    0.0000 N   0  0
   18.4398    8.1818    0.0000 C   0  0
   19.9193    8.4342    0.0000 C   0  0
   20.8778    7.2805    0.0000 Cl  0  0
   18.0043   10.7427    0.0000 C   0  0
   19.4840   10.9935    0.0000 C   0  0
   20.0072   12.3993    0.0000 Cl  0  0
   15.4834    7.6759    0.0000 C   0  0
   14.0053    7.4206    0.0000 C   0  0
   -0.3998   -1.6942    0.0000 C   0  0
   -1.3669   -0.5465    0.0000 C   0  0
   -2.8446   -0.8092    0.0000 C   0  0
   -3.8128    0.3365    0.0000 C   0  0
   -5.2891    0.0709    0.0000 C   0  0
   -5.7972   -1.3404    0.0000 C   0  0
   -7.2738   -1.6092    0.0000 C   0  0
   -7.7802   -3.0220    0.0000 C   0  0
   -6.4760   -3.7631    0.0000 C   0  0
   -6.4656   -5.2630    0.0000 C   0  0
   -5.1614   -6.0040    0.0000 Cl  0  0
   -7.7595   -6.0220    0.0000 C   0  0
   -7.7522   -7.5228    0.0000 O   0  0
   -9.0478   -8.2804    0.0000 C   0  0
   -9.0405   -9.7812    0.0000 C   0  0
   -7.7376  -10.5244    0.0000 O   0  0
  -10.3361  -10.5387    0.0000 N   0  0
  -10.3288  -12.0395    0.0000 C   0  0
  -11.6244  -12.7970    0.0000 C   0  0
  -11.6171  -14.2979    0.0000 O   0  0
  -12.9127  -15.0554    0.0000 C   0  0
  -14.2156  -14.3121    0.0000 O   0  0
  -12.9054  -16.5562    0.0000 C   0  0
  -14.2010  -17.3137    0.0000 C   0  0
  -14.1938  -18.8145    0.0000 C   0  0
  -15.4894  -19.5721    0.0000 C   0  0
  -15.4843  -21.0721    0.0000 C   0  0
  -16.7807  -21.8266    0.0000 C   0  0
  -18.0823  -21.0811    0.0000 C   0  0
  -19.3810  -21.8333    0.0000 N   0  0
  -20.6823  -21.0856    0.0000 C   0  0
  -21.9810  -21.8378    0.0000 C   0  0
  -22.8481  -21.3396    0.0000 Cl  0  0
  -19.3816  -23.3342    0.0000 C   0  0
  -20.6811  -24.0850    0.0000 C   0  0
  -20.6816  -25.5850    0.0000 Cl  0  0
  -18.0875  -19.5811    0.0000 C   0  0
  -16.7911  -18.8266    0.0000 C   0  0
   -9.0636   -5.2810    0.0000 C   0  0
   -9.0740   -3.7810    0.0000 C   0  0
  -10.0491   -2.6401    0.0000 O   0  0
  -11.5249   -2.9131    0.0000 C   0  0
  -12.4999   -1.7721    0.0000 C   0  0
  -11.9991   -0.3582    0.0000 O   0  0
  -13.9757   -2.0451    0.0000 N   0  0
  -14.9507   -0.9041    0.0000 C   0  0
  -16.4265   -1.1771    0.0000 C   0  0
  -17.4015   -0.0362    0.0000 O   0  0
  -18.8773   -0.3091    0.0000 C   0  0
  -19.3781   -1.7231    0.0000 O   0  0
  -19.8523    0.8318    0.0000 C   0  0
  -21.3281    0.5588    0.0000 C   0  0
  -22.3032    1.6998    0.0000 C   0  0
  -23.7790    1.4268    0.0000 C   0  0
  -24.7551    2.5657    0.0000 C   0  0
  -26.2296    2.2899    0.0000 C   0  0
  -26.7279    0.8751    0.0000 C   0  0
  -28.2026    0.5960    0.0000 N   0  0
  -28.6991   -0.8202    0.0000 C   0  0
  -30.1738   -1.0993    0.0000 C   0  0
  -30.6701   -2.5148    0.0000 Cl  0  0
  -29.1835    1.7319    0.0000 C   0  0
  -30.6579    1.4513    0.0000 C   0  0
  -31.3115    2.2081    0.0000 Cl  0  0
  -25.7518   -0.2639    0.0000 C   0  0
  -24.2774    0.0119    0.0000 C   0  0
   -8.2444   -0.4646    0.0000 C   0  0
   -7.7369    0.9470    0.0000 C   0  0
   -8.7055    2.0924    0.0000 C   0  0
   -8.3671    3.0334    0.0000 Cl  0  0
  -10.1817    1.8262    0.0000 C   0  0
  -11.1532    2.9702    0.0000 O   0  0
  -12.6298    2.7018    0.0000 C   0  0
  -13.6013    3.8458    0.0000 C   0  0
  -13.2645    4.7874    0.0000 O   0  0
  -15.0779    3.5774    0.0000 N   0  0
  -16.0494    4.7214    0.0000 C   0  0
  -17.5261    4.4530    0.0000 C   0  0
  -18.4975    5.5970    0.0000 O   0  0
  -19.9742    5.3286    0.0000 C   0  0
  -20.4793    3.9162    0.0000 O   0  0
  -20.9456    6.4726    0.0000 C   0  0
  -22.4223    6.2042    0.0000 C   0  0
  -23.3937    7.3482    0.0000 C   0  0
  -24.8704    7.0798    0.0000 C   0  0
  -25.8430    8.2217    0.0000 C   0  0
  -27.3183    7.9505    0.0000 C   0  0
  -27.8210    6.5372    0.0000 C   0  0
  -29.2965    6.2628    0.0000 N   0  0
  -29.7975    4.8481    0.0000 C   0  0
  -31.2730    4.5736    0.0000 C   0  0
  -31.6069    3.6310    0.0000 Cl  0  0
  -30.2740    7.4017    0.0000 C   0  0
  -31.7492    7.1257    0.0000 C   0  0
  -32.7261    8.2640    0.0000 Cl  0  0
  -26.8485    5.3952    0.0000 C   0  0
  -25.3732    5.6665    0.0000 C   0  0
  -10.6893    0.4147    0.0000 C   0  0
   -9.7207   -0.7306    0.0000 C   0  0
  -10.2316   -2.1418    0.0000 O   0  0
  -11.7090   -2.4059    0.0000 C   0  0
  -12.6717   -3.5573    0.0000 C   0  0
  -12.1558   -4.9658    0.0000 O   0  0
  -14.1504   -3.3002    0.0000 N   0  0
  -15.1131   -4.4516    0.0000 C   0  0
  -16.5917   -4.1945    0.0000 C   0  0
  -17.5544   -5.3458    0.0000 O   0  0
  -19.0331   -5.0887    0.0000 C   0  0
  -19.5490   -3.6802    0.0000 O   0  0
  -19.9958   -6.2401    0.0000 C   0  0
  -21.4744   -5.9830    0.0000 C   0  0
  -22.4371   -7.1343    0.0000 C   0  0
  -23.9158   -6.8772    0.0000 C   0  0
  -24.8797   -8.0266    0.0000 C   0  0
  -26.3570   -7.7666    0.0000 C   0  0
  -26.8705   -6.3572    0.0000 C   0  0
  -28.3480   -6.0941    0.0000 N   0  0
  -28.8598   -4.6832    0.0000 C   0  0
  -30.3374   -4.4200    0.0000 C   0  0
  -30.8489   -3.0099    0.0000 Cl  0  0
  -29.3167   -7.2404    0.0000 C   0  0
  -30.7940   -6.9756    0.0000 C   0  0
  -31.4395   -7.7394    0.0000 Cl  0  0
  -25.9067   -5.2078    0.0000 C   0  0
  -24.4294   -5.4678    0.0000 C   0  0
   -4.8291   -2.4861    0.0000 C   0  0
   -3.3528   -2.2205    0.0000 C   0  0
   -0.8561    0.8647    0.0000 C   0  0
    0.6211    1.1258    0.0000 C   0  0
    1.1336    2.5356    0.0000 C   0  0
    2.1183    2.7096    0.0000 Cl  0  0
    0.1689    3.6843    0.0000 C   0  0
    0.6788    5.0958    0.0000 O   0  0
   -0.2880    6.2438    0.0000 C   0  0
    0.2219    7.6554    0.0000 C   0  0
    1.6985    7.9190    0.0000 O   0  0
   -0.7449    8.8033    0.0000 N   0  0
   -0.2350   10.2149    0.0000 C   0  0
   -1.2018   11.3628    0.0000 C   0  0
   -0.6920   12.7744    0.0000 O   0  0
   -1.6588   13.9223    0.0000 C   0  0
   -3.1354   13.6587    0.0000 O   0  0
   -1.1489   15.3339    0.0000 C   0  0
   -2.1157   16.4819    0.0000 C   0  0
   -1.6058   17.8934    0.0000 C   0  0
   -2.5726   19.0414    0.0000 C   0  0
   -2.0651   20.4529    0.0000 C   0  0
   -3.0337   21.5983    0.0000 C   0  0
   -4.5099   21.3321    0.0000 C   0  0
   -5.4813   22.4761    0.0000 N   0  0
   -6.9580   22.2077    0.0000 C   0  0
   -7.9295   23.3517    0.0000 C   0  0
   -9.4053   23.0835    0.0000 Cl  0  0
   -4.9788   23.8903    0.0000 C   0  0
   -5.9516   25.0332    0.0000 C   0  0
   -5.4493   26.4467    0.0000 Cl  0  0
   -5.0175   19.9206    0.0000 C   0  0
   -4.0489   18.7753    0.0000 C   0  0
   -1.3082    3.4232    0.0000 C   0  0
   -1.8207    2.0135    0.0000 C   0  0
   -3.2991    1.7554    0.0000 O   0  0
   -4.2626    2.9062    0.0000 C   0  0
   -5.7411    2.6481    0.0000 C   0  0
   -6.2561    1.2393    0.0000 O   0  0
   -6.7045    3.7988    0.0000 N   0  0
   -8.1830    3.5408    0.0000 C   0  0
   -9.1465    4.6915    0.0000 C   0  0
  -10.6249    4.4335    0.0000 O   0  0
  -11.5884    5.5842    0.0000 C   0  0
  -11.0734    6.9930    0.0000 O   0  0
  -13.0669    5.3261    0.0000 C   0  0
  -14.0303    6.4769    0.0000 C   0  0
  -15.5088    6.2188    0.0000 C   0  0
  -16.4723    7.3696    0.0000 C   0  0
  -17.9503    7.1138    0.0000 C   0  0
  -18.9109    8.2659    0.0000 C   0  0
  -18.3935    9.6738    0.0000 C   0  0
  -19.3522   10.8285    0.0000 N   0  0
  -18.8325   12.2365    0.0000 C   0  0
  -19.7912   13.3911    0.0000 C   0  0
  -19.2718   14.7983    0.0000 Cl  0  0
  -20.8320   10.5781    0.0000 C   0  0
  -21.7895   11.7339    0.0000 C   0  0
  -23.2685   11.4836    0.0000 Cl  0  0
  -16.9155    9.9297    0.0000 C   0  0
  -15.9549    8.7776    0.0000 C   0  0
   -0.9128   -3.1037    0.0000 C   0  0
    0.0513   -4.2528    0.0000 C   0  0
   -0.4617   -5.6623    0.0000 Cl  0  0
    1.5407   -9.1133    0.0000 N   0  0
    2.0569  -10.5225    0.0000 C   0  0
    1.0953  -11.6748    0.0000 C   0  0
    1.6115  -13.0841    0.0000 O   0  0
    0.6499  -14.2364    0.0000 C   0  0
   -0.8279  -13.9794    0.0000 O   0  0
    1.1661  -15.6456    0.0000 C   0  0
    0.2045  -16.7979    0.0000 C   0  0
    0.7207  -18.2072    0.0000 C   0  0
   -0.2409  -19.3594    0.0000 C   0  0
    0.2730  -20.7687    0.0000 C   0  0
   -0.6904  -21.9184    0.0000 C   0  0
   -2.1678  -21.6589    0.0000 C   0  0
   -3.1341  -22.8073    0.0000 N   0  0
   -4.6120  -22.5455    0.0000 C   0  0
   -5.5783  -23.6938    0.0000 C   0  0
   -7.0553  -23.4322    0.0000 Cl  0  0
   -2.6253  -24.2192    0.0000 C   0  0
   -3.5929  -25.3665    0.0000 C   0  0
   -3.0843  -26.7776    0.0000 Cl  0  0
   -2.6818  -20.2497    0.0000 C   0  0
   -1.7183  -19.1000    0.0000 C   0  0
  1  2  2  0
  2  3  1  0
  3  4  1  0
  4  5  1  0
  5  6  2  0
  6  7  1  0
  7  8  1  0
  8  9  1  0
  9 10  1  0
 10 11  2  0
 10 12  1  0
 12 13  1  0
 13 14  1  0
 14 15  1  0
 15 16  1  0
 16 17  2  0
 16 18  1  0
 18 19  1  0
 19 20  1  0
 20 21  1  0
 21 22  2  0
 22 23  1  0
 23 24  2  0
 24 25  1  0
 25 26  1  0
 26 27  1  0
 27 28  1  0
 25 29  1  0
 29 30  1  0
 30 31  1  0
 24 32  1  0
 32 33  2  0
 33 21  1  0
  7 34  2  0
 34 35  1  0
 35 36  1  0
 36 37  2  0
 37 38  1  0
 38 39  2  0
 39 40  1  0
 40 41  1  0
 41 42  2  0
 42 43  1  0
 43 44  1  0
 43 45  2  0
 45 46  1  0
 46 47  1  0
 47 48  1  0
 48 49  2  0
 48 50  1  0
 50 51  1  0
 51 52  1  0
 52 53  1  0
 53 54  1  0
 54 55  2  0
 54 56  1  0
 56 57  1  0
 57 58  1  0
 58 59  1  0
 59 60  2  0
 60 61  1  0
 61 62  2  0
 62 63  1  0
 63 64  1  0
 64 65  1  0
 65 66  1  0
 63 67  1  0
 67 68  1  0
 68 69  1  0
 62 70  1  0
 70 71  2  0
 71 59  1  0
 45 72  1  0
 72 73  2  0
 73 41  1  0
 73 74  1  0
 74 75  1  0
 75 76  1  0
 76 77  2  0
 76 78  1  0
 78 79  1  0
 79 80  1  0
 80 81  1  0
 81 82  1  0
 82 83  2  0
 82 84  1  0
 84 85  1  0
 85 86  1  0
 86 87  1  0
 87 88  2  0
 88 89  1  0
 89 90  2  0
 90 91  1  0
 91 92  1  0
 92 93  1  0
 93 94  1  0
 91 95  1  0
 95 96  1  0
 96 97  1  0
 90 98  1  0
 98 99  2  0
 99 87  1  0
 40100  1  0
100101  2  0
101102  1  0
102103  1  0
102104  2  0
104105  1  0
105106  1  0
106107  1  0
107108  2  0
107109  1  0
109110  1  0
110111  1  0
111112  1  0
112113  1  0
113114  2  0
113115  1  0
115116  1  0
116117  1  0
117118  1  0
118119  2  0
119120  1  0
120121  2  0
121122  1  0
122123  1  0
123124  1  0
124125  1  0
122126  1  0
126127  1  0
127128  1  0
121129  1  0
129130  2  0
130118  1  0
104131  1  0
131132  2  0
132100  1  0
132133  1  0
133134  1  0
134135  1  0
135136  2  0
135137  1  0
137138  1  0
138139  1  0
139140  1  0
140141  1  0
141142  2  0
141143  1  0
143144  1  0
144145  1  0
145146  1  0
146147  2  0
147148  1  0
148149  2  0
149150  1  0
150151  1  0
151152  1  0
152153  1  0
150154  1  0
154155  1  0
155156  1  0
149157  1  0
157158  2  0
158146  1  0
 39159  1  0
159160  2  0
160 36  1  0
 35161  1  0
161162  2  0
162163  1  0
163164  1  0
163165  2  0
165166  1  0
166167  1  0
167168  1  0
168169  2  0
168170  1  0
170171  1  0
171172  1  0
172173  1  0
173174  1  0
174175  2  0
174176  1  0
176177  1  0
177178  1  0
178179  1  0
179180  2  0
180181  1  0
181182  2  0
182183  1  0
183184  1  0
184185  1  0
185186  1  0
183187  1  0
187188  1  0
188189  1  0
182190  1  0
190191  2  0
191179  1  0
165192  1  0
192193  2  0
193161  1  0
193194  1  0
194195  1  0
195196  1  0
196197  2  0
196198  1  0
198199  1  0
199200  1  0
200201  1  0
201202  1  0
202203  2  0
202204  1  0
204205  1  0
205206  1  0
206207  1  0
207208  2  0
208209  1  0
209210  2  0
210211  1  0
211212  1  0
212213  1  0
213214  1  0
211215  1  0
215216  1  0
216217  1  0
210218  1  0
218219  2  0
219207  1  0
 34220  1  0
220221  2  0
221  5  1  0
221222  1  0
  2223  1  0
223224  1  0
224225  1  0
225226  1  0
226227  1  0
227228  2  0
227229  1  0
229230  1  0
230231  1  0
231232  1  0
232233  2  0
233234  1  0
234235  2  0
235236  1  0
236237  1  0
237238  1  0
238239  1  0
236240  1  0
240241  1  0
241242  1  0
235243  1  0
243244  2  0
244232  1  0
M  END
> <Smiles>
O=C(COc1cc(OCC(=O)NCCOC(=O)CCCc2ccc(N(CCCl)CCCl)cc2)c(C(c2ccc(C(c3cc(Cl)c(OCC(=O)NCCOC(=O)CCCc4ccc(N(CCCl)CCCl)cc4)cc3OCC(=O)NCCOC(=O)CCCc3ccc(N(CCCl)CCCl)cc3)c3cc(Cl)c(OCC(=O)NCCOC(=O)CCCc4ccc(N(CCCl
)CCCl)cc4)cc3OCC(=O)NCCOC(=O)CCCc3ccc(N(CCCl)CCCl)cc3)cc2)c2cc(Cl)c(OCC(=O)NCCOC(=O)CCCc3ccc(N(CCCl)CCCl)cc3)cc2OCC(=O)NCCOC(=O)CCCc2ccc(N(CCCl)CCCl)cc2)cc1Cl)NCCOC(=O)CCCc1ccc(N(CCCl)CCCl)cc1

> <ID>
CHEMBL4644511

> <standard_value>
24290

> <IC50_uM>
24.29

> <Activity>
No

> <pIC50>
4.614572485

> <BCI>
0

$$$$

  SciTegic03012415362D

 40 44  0  0  1  0            999 V2000
    5.1887   -6.0105    0.0000 C   0  0
    3.8912   -5.2578    0.0000 C   0  0
    3.8933   -3.7570    0.0000 C   0  0
    2.5951   -3.0039    0.0000 N   0  0
    1.2925   -3.7494    0.0000 C   0  0
   -0.0048   -2.9949    0.0000 C   0  0
   -1.3067   -3.7399    0.0000 C   0  0
    2.5973   -1.5031    0.0000 C   0  0
    1.2990   -0.7500    0.0000 C   0  0  2  0  0  0
    1.2990    0.7500    0.0000 C   0  0  1  0  0  0
    0.7500   -0.7205    0.0000 C   0  0
   -0.7500   -0.7205    0.0000 O   0  0
   -1.2990    0.7500    0.0000 C   0  0  3  0  0  0
   -2.2585   -0.4225    0.0000 C   0  0
   -3.7435   -0.2048    0.0000 C   0  0
   -4.6752   -1.3814    0.0000 C   0  0
   -6.1593   -1.1639    0.0000 C   0  0
   -4.1220   -2.7757    0.0000 C   0  0
   -1.2990   -0.7500    0.0000 C   0  0
   -2.5981   -1.5000    0.0000 O   0  0
    0.0000   -1.5000    0.0000 C   0  0  2  0  0  0
    1.1367    0.4746    0.0000 C   0  0
   -0.7043    2.8783    0.0000 C   0  0
    0.0457    4.1773    0.0000 C   0  0
   -0.7043    5.4764    0.0000 O   0  0
    1.5457    4.1773    0.0000 C   0  0
    2.2957    5.4764    0.0000 C   0  0
    1.5457    6.7754    0.0000 O   0  0
    3.7957    5.4764    0.0000 C   0  0
    4.5457    4.1773    0.0000 C   0  0
    6.0457    4.1773    0.0000 O   0  0
    3.7957    2.8783    0.0000 C   0  0
    4.5488    1.5801    0.0000 C   0  0
    6.0497    1.5822    0.0000 C   0  0
    6.8027    0.2840    0.0000 C   0  0
    8.3027    0.2862    0.0000 C   0  0
    6.0550   -1.0163    0.0000 C   0  0
    2.2957    2.8783    0.0000 C   0  0
    1.5457    1.5793    0.0000 O   0  0
    0.0000    1.5000    0.0000 C   0  0  1  0  0  0
  1  2  1  0
  2  3  1  0
  3  4  1  0
  4  5  1  0
  5  6  1  0
  6  7  1  0
  4  8  1  0
  9  8  1  1
  9 10  1  0
 10 11  1  6
 11 12  1  0
 12 13  1  0
 13 14  1  4
 14 15  1  0
 15 16  2  0
 16 17  1  0
 16 18  1  0
 13 19  1  0
 19 20  2  0
 19 21  1  0
 21  9  1  0
 21 22  1  1
 22 23  2  0
 23 24  1  0
 24 25  2  0
 24 26  1  0
 26 27  2  0
 27 28  1  0
 27 29  1  0
 29 30  2  0
 30 31  1  0
 30 32  1  0
 32 33  1  0
 33 34  1  0
 34 35  2  0
 35 36  1  0
 35 37  1  0
 32 38  2  0
 38 26  1  0
 38 39  1  0
 40 39  1  6
 40 23  1  0
 40 10  1  0
 40 13  1  0
M  END
> <Smiles>
CCCN(CCC)C[C@@H]1[C@H]2COC3(CC=C(C)C)C(=O)[C@@H]1C=C1C(=O)c4c(O)cc(O)c(CC=C(C)C)c4O[C@]123

> <ID>
CHEMBL2335678

> <standard_value>
24300

> <IC50_uM>
24.3

> <Activity>
No

> <pIC50>
4.614393726

> <BCI>
0

$$$$

  SciTegic03012415362D

 28 31  0  0  0  0            999 V2000
   -0.9273  -15.9904    0.0000 C   0  0
    0.0804  -14.8794    0.0000 C   0  0
    1.5465  -15.1966    0.0000 C   0  0
    2.5543  -14.0855    0.0000 N   0  0
    2.0959  -12.6573    0.0000 C   0  0
    0.6299  -12.3400    0.0000 C   0  0
    0.1684  -10.9119    0.0000 N   0  0
   -1.2990  -10.5965    0.0000 C   0  0
   -2.3028  -11.7111    0.0000 C   0  0
   -3.7700  -11.3990    0.0000 C   0  0
   -4.2333   -9.9723    0.0000 C   0  0
   -3.2294   -8.8578    0.0000 C   0  0
   -1.7622   -9.1698    0.0000 C   0  0
   -0.7600   -8.0526    0.0000 C   0  0
    0.7077   -8.3622    0.0000 O   0  0
   -1.2256   -6.6258    0.0000 N   0  0
   -0.2234   -5.5086    0.0000 C   0  0
   -0.6890   -4.0818    0.0000 C   0  0
    0.3114   -2.9665    0.0000 C   0  0
    1.8032   -3.1233    0.0000 C   0  0
    2.4133   -1.7530    0.0000 N   0  0
    1.2990   -0.7500    0.0000 C   0  0
    1.2990    0.7500    0.0000 C   0  0
    0.0000    1.5000    0.0000 C   0  0
   -1.2990    0.7500    0.0000 C   0  0
   -1.2990   -0.7500    0.0000 C   0  0
    0.0000   -1.5000    0.0000 C   0  0
   -0.3779  -13.4511    0.0000 C   0  0
  1  2  1  0
  2  3  2  0
  3  4  1  0
  4  5  2  0
  5  6  1  0
  6  7  1  0
  7  8  1  0
  8  9  2  0
  9 10  1  0
 10 11  2  0
 11 12  1  0
 12 13  2  0
 13  8  1  0
 13 14  1  0
 14 15  2  0
 14 16  1  0
 16 17  1  0
 17 18  1  0
 18 19  1  0
 19 20  2  0
 20 21  1  0
 21 22  1  0
 22 23  2  0
 23 24  1  0
 24 25  2  0
 25 26  1  0
 26 27  2  0
 27 19  1  0
 27 22  1  0
  6 28  2  0
 28  2  1  0
M  END
> <Smiles>
Cc1cncc(Nc2ccccc2C(=O)NCCc2c[nH]c3ccccc23)c1

> <ID>
CHEMBL4867315

> <standard_value>
24450

> <IC50_uM>
24.45

> <Activity>
No

> <pIC50>
4.611721137

> <BCI>
0

$$$$

  SciTegic03012415362D

 27 28  0  0  0  0            999 V2000
    3.8983   -0.7459    0.0000 C   0  0
    2.6003   -1.4977    0.0000 O   0  0
    1.2990   -0.7500    0.0000 C   0  0
    1.2990    0.7500    0.0000 C   0  0
    0.0000    1.5000    0.0000 C   0  0
   -0.0031    3.0008    0.0000 C   0  0
   -1.3039    3.7494    0.0000 C   0  0
   -1.3070    5.2502    0.0000 C   0  0
   -0.0093    6.0025    0.0000 O   0  0
   -2.6078    5.9988    0.0000 C   0  0
   -2.6109    7.4996    0.0000 C   0  0
   -1.3132    8.2519    0.0000 O   0  0
   -3.9118    8.2481    0.0000 C   0  0
   -3.9149    9.7490    0.0000 C   0  0
   -5.2157   10.4975    0.0000 C   0  0
   -5.2210   11.9975    0.0000 C   0  0
   -6.5226   12.7430    0.0000 C   0  0
   -7.8190   11.9885    0.0000 C   0  0
   -9.1207   12.7340    0.0000 N   0  0
   -7.8138   10.4885    0.0000 C   0  0
   -9.1094    9.7310    0.0000 O   0  0
   -9.1021    8.2310    0.0000 C   0  0
   -6.5122    9.7430    0.0000 C   0  0
   -1.2990    0.7500    0.0000 C   0  0
   -1.2990   -0.7500    0.0000 C   0  0
    0.0000   -1.5000    0.0000 C   0  0
    0.0000   -3.0000    0.0000 N   0  0
  1  2  1  0
  2  3  1  0
  3  4  2  0
  4  5  1  0
  5  6  1  0
  6  7  2  0
  7  8  1  0
  8  9  2  0
  8 10  1  0
 10 11  2  0
 11 12  1  0
 11 13  1  0
 13 14  2  0
 14 15  1  0
 15 16  2  0
 16 17  1  0
 17 18  2  0
 18 19  1  0
 18 20  1  0
 20 21  1  0
 21 22  1  0
 20 23  2  0
 23 15  1  0
  5 24  2  0
 24 25  1  0
 25 26  2  0
 26  3  1  0
 26 27  1  0
M  END
> <Smiles>
COc1cc(/C=C/C(=O)/C=C(O)/C=C/c2ccc(N)c(OC)c2)ccc1N

> <ID>
CHEMBL1669061

> <standard_value>
24500

> <IC50_uM>
24.5

> <Activity>
No

> <pIC50>
4.610833916

> <BCI>
0

$$$$

  SciTegic03012415362D

 28 31  0  0  0  0            999 V2000
    3.1037  -11.5463    0.0000 C   0  0
    2.0959  -12.6573    0.0000 C   0  0
    2.5543  -14.0856    0.0000 N   0  0
    1.5465  -15.1966    0.0000 C   0  0
    0.0804  -14.8794    0.0000 C   0  0
   -0.3779  -13.4511    0.0000 C   0  0
    0.6299  -12.3400    0.0000 C   0  0
    0.1684  -10.9119    0.0000 N   0  0
   -1.2990  -10.5965    0.0000 C   0  0
   -2.3028  -11.7111    0.0000 C   0  0
   -3.7700  -11.3990    0.0000 C   0  0
   -4.2333   -9.9723    0.0000 C   0  0
   -3.2294   -8.8578    0.0000 C   0  0
   -1.7622   -9.1698    0.0000 C   0  0
   -0.7600   -8.0526    0.0000 C   0  0
    0.7077   -8.3622    0.0000 O   0  0
   -1.2256   -6.6258    0.0000 N   0  0
   -0.2234   -5.5086    0.0000 C   0  0
   -0.6890   -4.0818    0.0000 C   0  0
    0.3114   -2.9665    0.0000 C   0  0
    1.8032   -3.1233    0.0000 C   0  0
    2.4133   -1.7530    0.0000 N   0  0
    1.2990   -0.7500    0.0000 C   0  0
    1.2990    0.7500    0.0000 C   0  0
    0.0000    1.5000    0.0000 C   0  0
   -1.2990    0.7500    0.0000 C   0  0
   -1.2990   -0.7500    0.0000 C   0  0
    0.0000   -1.5000    0.0000 C   0  0
  1  2  1  0
  2  3  2  0
  3  4  1  0
  4  5  2  0
  5  6  1  0
  6  7  2  0
  7  2  1  0
  7  8  1  0
  8  9  1  0
  9 10  2  0
 10 11  1  0
 11 12  2  0
 12 13  1  0
 13 14  2  0
 14  9  1  0
 14 15  1  0
 15 16  2  0
 15 17  1  0
 17 18  1  0
 18 19  1  0
 19 20  1  0
 20 21  2  0
 21 22  1  0
 22 23  1  0
 23 24  2  0
 24 25  1  0
 25 26  2  0
 26 27  1  0
 27 28  2  0
 28 20  1  0
 28 23  1  0
M  END
> <Smiles>
Cc1ncccc1Nc1ccccc1C(=O)NCCc1c[nH]c2ccccc12

> <ID>
CHEMBL4852960

> <standard_value>
24620

> <IC50_uM>
24.62

> <Activity>
No

> <pIC50>
4.608711951

> <BCI>
0

$$$$

  SciTegic03012415362D

 32 34  0  0  0  0            999 V2000
    3.8926   -3.7566    0.0000 C   0  0
    2.5951   -3.0039    0.0000 N   0  0
    2.5973   -1.5031    0.0000 C   0  0
    3.8976   -0.7553    0.0000 O   0  0
    1.2990   -0.7500    0.0000 C   0  0
    1.2990    0.7500    0.0000 C   0  0
    0.0000    1.5000    0.0000 C   0  0
   -0.0031    3.0008    0.0000 O   0  0
   -1.3039    3.7494    0.0000 C   0  0
   -1.3092    5.2494    0.0000 C   0  0
   -2.6108    5.9949    0.0000 C   0  0
   -3.9073    5.2404    0.0000 C   0  0
   -5.2112    5.9836    0.0000 N   0  0
   -6.5072    5.2269    0.0000 C   0  0
   -6.4994    3.7269    0.0000 O   0  0
   -7.8111    5.9701    0.0000 N   0  0
   -9.1072    5.2134    0.0000 C   0  0
  -10.4114    5.9543    0.0000 C   0  0
  -11.7053    5.1953    0.0000 C   0  0
  -11.6949    3.6953    0.0000 C   0  0
  -12.9887    2.9364    0.0000 Cl  0  0
  -10.3907    2.9543    0.0000 C   0  0
  -10.3803    1.4536    0.0000 C   0  0
  -11.6736    0.6938    0.0000 F   0  0
   -9.0759    0.7130    0.0000 F   0  0
  -10.3692   -0.0464    0.0000 F   0  0
   -9.0969    3.7133    0.0000 C   0  0
   -3.9021    3.7404    0.0000 C   0  0
   -2.6005    2.9949    0.0000 C   0  0
   -1.2990    0.7500    0.0000 C   0  0
   -1.2990   -0.7500    0.0000 C   0  0
    0.0000   -1.5000    0.0000 N   0  0
  1  2  1  0
  2  3  1  0
  3  4  2  0
  3  5  1  0
  5  6  2  0
  6  7  1  0
  7  8  1  0
  8  9  1  0
  9 10  2  0
 10 11  1  0
 11 12  2  0
 12 13  1  0
 13 14  1  0
 14 15  2  0
 14 16  1  0
 16 17  1  0
 17 18  2  0
 18 19  1  0
 19 20  2  0
 20 21  1  0
 20 22  1  0
 22 23  1  0
 23 24  1  0
 23 25  1  0
 23 26  1  0
 22 27  2  0
 27 17  1  0
 12 28  1  0
 28 29  2  0
 29  9  1  0
  7 30  2  0
 30 31  1  0
 31 32  2  0
 32  5  1  0
M  END
> <Smiles>
CNC(=O)c1cc(Oc2ccc(NC(=O)Nc3ccc(Cl)c(C(F)(F)F)c3)cc2)ccn1

> <ID>
CHEMBL1336

> <standard_value>
24710

> <IC50_uM>
24.71

> <Activity>
No

> <pIC50>
4.607127255

> <BCI>
0

$$$$

  SciTegic03012415362D

 32 35  0  0  0  0            999 V2000
    3.8983   -0.7459    0.0000 C   0  0
    2.6003   -1.4977    0.0000 O   0  0
    1.2990   -0.7500    0.0000 C   0  0
    1.2990    0.7500    0.0000 C   0  0
    0.0000    1.5000    0.0000 C   0  0
    0.0000    3.0000    0.0000 N   0  0
   -1.2991    3.7500    0.0000 C   0  0
   -1.2991    5.2507    0.0000 N   0  0
   -0.0012    6.0029    0.0000 C   0  0
   -0.0036    7.5029    0.0000 C   0  0
   -1.3039    8.2509    0.0000 N   0  0
   -1.3093    9.7517    0.0000 C   0  0
   -0.0128   10.5060    0.0000 O   0  0
   -2.6114   10.4982    0.0000 C   0  0
   -2.6190   11.9982    0.0000 C   0  0
   -3.9218   12.7416    0.0000 C   0  0
   -5.2171   11.9850    0.0000 C   0  0
   -5.2095   10.4851    0.0000 C   0  0
   -6.5039    9.7254    0.0000 N   0  3
   -6.4942    8.2255    0.0000 O   0  0
   -7.8080   10.4666    0.0000 O   0  5
   -3.9067    9.7416    0.0000 C   0  0
   -2.6017    7.4988    0.0000 C   0  0
   -2.5993    5.9988    0.0000 C   0  0
   -2.5981    3.0000    0.0000 N   0  0
   -2.5981    1.5000    0.0000 C   0  0
   -3.8971    0.7500    0.0000 N   0  0
   -1.2990    0.7500    0.0000 C   0  0
   -1.2990   -0.7500    0.0000 C   0  0
    0.0000   -1.5000    0.0000 C   0  0
   -0.0031   -3.0008    0.0000 O   0  0
   -1.3032   -3.7490    0.0000 C   0  0
  1  2  1  0
  2  3  1  0
  3  4  2  0
  4  5  1  0
  5  6  2  0
  6  7  1  0
  7  8  1  0
  8  9  1  0
  9 10  1  0
 10 11  1  0
 11 12  1  0
 12 13  2  0
 12 14  1  0
 14 15  2  0
 15 16  1  0
 16 17  2  0
 17 18  1  0
 18 19  1  0
 19 20  2  0
 19 21  1  0
 18 22  2  0
 22 14  1  0
 11 23  1  0
 23 24  1  0
 24  8  1  0
  7 25  2  0
 25 26  1  0
 26 27  1  0
 26 28  2  0
 28  5  1  0
 28 29  1  0
 29 30  2  0
 30  3  1  0
 30 31  1  0
 31 32  1  0
M  CHG  2  19   1  21  -1
M  END
> <Smiles>
COc1cc2nc(N3CCN(C(=O)c4cccc([N+](=O)[O-])c4)CC3)nc(N)c2cc1OC

> <ID>
CHEMBL4800241

> <standard_value>
24800

> <IC50_uM>
24.8

> <Activity>
No

> <pIC50>
4.605548319

> <BCI>
0

$$$$

  SciTegic03012415362D

 13 12  0  0  0  0            999 V2000
    0.0007    0.0004    0.0000 C   0  0
    1.3000    0.7500    0.0000 C   0  0
    2.6000    0.0000    0.0000 O   0  0
    3.9000    0.7500    0.0000 P   0  0
    3.9000    2.2500    0.0000 O   0  0
    2.5761    1.5169    0.0000 O   0  0
    2.5773    3.0177    0.0000 C   0  0
    1.2793    3.7696    0.0000 C   0  0
    5.2000    0.0000    0.0000 N   0  0
    5.2000   -1.5000    0.0000 C   0  0
    6.5000    0.7500    0.0000 N   0  0
    7.7999    0.0000    0.0000 N   0  0
    7.8014   -1.5000    0.0000 C   0  0
  1  2  1  0
  2  3  1  0
  3  4  1  0
  4  5  2  0
  4  6  1  0
  6  7  1  0
  7  8  1  0
  4  9  1  0
  9 10  1  0
  9 11  1  0
 11 12  2  0
 12 13  1  0
M  END
> <Smiles>
CCOP(=O)(OCC)N(C)/N=N\C

> <ID>
CHEMBL85702

> <standard_value>
25000

> <IC50_uM>
25

> <Activity>
No

> <pIC50>
4.602059991

> <BCI>
0

$$$$

  SciTegic03012415362D

 24 26  0  0  0  0            999 V2000
    7.3532   -3.3675    0.0000 C   0  0
    6.3509   -2.2515    0.0000 C   0  0
    4.8823   -2.5608    0.0000 C   0  0
    3.8794   -1.4442    0.0000 C   0  0
    2.4133   -1.7530    0.0000 N   0  0
    1.2990   -0.7500    0.0000 C   0  0
    1.2990    0.7500    0.0000 C   0  0
    0.0000    1.5000    0.0000 C   0  0
   -0.0031    3.0008    0.0000 O   0  0
   -1.3039    3.7494    0.0000 C   0  0
   -1.3070    5.2502    0.0000 C   0  0
   -2.6071    5.9984    0.0000 C   0  0
   -2.6039    2.9994    0.0000 C   0  0
   -3.9032    3.7490    0.0000 C   0  0
   -1.2990    0.7500    0.0000 C   0  0
   -1.2990   -0.7500    0.0000 C   0  0
    0.0000   -1.5000    0.0000 C   0  0
    0.3114   -2.9665    0.0000 C   0  0
   -0.5701   -4.1788    0.0000 C   0  0
    0.0400   -5.5491    0.0000 C   0  0
    1.5318   -5.7059    0.0000 N   0  0
    2.4135   -4.4923    0.0000 C   0  0
    3.9053   -4.6488    0.0000 C   0  0
    1.8032   -3.1233    0.0000 C   0  0
  1  2  1  0
  2  3  1  0
  3  4  1  0
  4  5  1  0
  5  6  1  0
  6  7  2  0
  7  8  1  0
  8  9  1  0
  9 10  1  0
 10 11  1  0
 11 12  1  0
 10 13  1  0
 13 14  1  0
  8 15  2  0
 15 16  1  0
 16 17  2  0
 17  6  1  0
 17 18  1  0
 18 19  2  0
 19 20  1  0
 20 21  2  0
 21 22  1  0
 22 23  1  0
 22 24  2  0
 24 18  1  0
 24  5  1  0
M  END
> <Smiles>
CCCCn1c2cc(OC(CC)CC)ccc2c2ccnc(C)c21

> <ID>
CHEMBL2314667

> <standard_value>
25100

> <IC50_uM>
25.1

> <Activity>
No

> <pIC50>
4.600326279

> <BCI>
0

$$$$

  SciTegic03012415362D

 38 42  0  0  1  0            999 V2000
    3.8912   -5.2570    0.0000 C   0  0
    3.8933   -3.7570    0.0000 C   0  0
    2.5951   -3.0039    0.0000 N   0  0
    1.2925   -3.7494    0.0000 C   0  0
   -0.0041   -2.9953    0.0000 C   0  0
    2.5973   -1.5031    0.0000 C   0  0
    1.2990   -0.7500    0.0000 C   0  0  2  0  0  0
    1.2990    0.7500    0.0000 C   0  0  1  0  0  0
    0.7500   -0.7205    0.0000 C   0  0
   -0.7500   -0.7205    0.0000 O   0  0
   -1.2990    0.7500    0.0000 C   0  0  3  0  0  0
   -1.7996   -0.6800    0.0000 C   0  0
   -0.8399   -1.8338    0.0000 C   0  0
   -1.3585   -3.2422    0.0000 C   0  0
   -0.3993   -4.3955    0.0000 C   0  0
   -2.8367   -3.4968    0.0000 C   0  0
   -1.2990   -0.7500    0.0000 C   0  0
   -2.5981   -1.5000    0.0000 O   0  0
    0.0000   -1.5000    0.0000 C   0  0  2  0  0  0
    1.1367    0.4746    0.0000 C   0  0
   -0.7043    2.8783    0.0000 C   0  0
    0.0457    4.1773    0.0000 C   0  0
   -0.7043    5.4764    0.0000 O   0  0
    1.5457    4.1773    0.0000 C   0  0
    2.2957    5.4764    0.0000 C   0  0
    1.5457    6.7754    0.0000 O   0  0
    3.7957    5.4764    0.0000 C   0  0
    4.5457    4.1773    0.0000 C   0  0
    6.0457    4.1773    0.0000 O   0  0
    3.7957    2.8783    0.0000 C   0  0
    4.5488    1.5801    0.0000 C   0  0
    6.0497    1.5822    0.0000 C   0  0
    6.8027    0.2840    0.0000 C   0  0
    8.3027    0.2862    0.0000 C   0  0
    6.0550   -1.0163    0.0000 C   0  0
    2.2957    2.8783    0.0000 C   0  0
    1.5457    1.5793    0.0000 O   0  0
    0.0000    1.5000    0.0000 C   0  0  1  0  0  0
  1  2  1  0
  2  3  1  0
  3  4  1  0
  4  5  1  0
  3  6  1  0
  7  6  1  1
  7  8  1  0
  8  9  1  6
  9 10  1  0
 10 11  1  0
 11 12  1  4
 12 13  1  0
 13 14  2  0
 14 15  1  0
 14 16  1  0
 11 17  1  0
 17 18  2  0
 17 19  1  0
 19  7  1  0
 19 20  1  1
 20 21  2  0
 21 22  1  0
 22 23  2  0
 22 24  1  0
 24 25  2  0
 25 26  1  0
 25 27  1  0
 27 28  2  0
 28 29  1  0
 28 30  1  0
 30 31  1  0
 31 32  1  0
 32 33  2  0
 33 34  1  0
 33 35  1  0
 30 36  2  0
 36 24  1  0
 36 37  1  0
 38 37  1  6
 38 21  1  0
 38  8  1  0
 38 11  1  0
M  END
> <Smiles>
CCN(CC)C[C@@H]1[C@H]2COC3(CC=C(C)C)C(=O)[C@@H]1C=C1C(=O)c4c(O)cc(O)c(CC=C(C)C)c4O[C@]123

> <ID>
CHEMBL2335677

> <standard_value>
25100

> <IC50_uM>
25.1

> <Activity>
No

> <pIC50>
4.600326279

> <BCI>
0

$$$$

  SciTegic03012415362D

 39 44  0  0  1  0            999 V2000
    2.1934   -5.8718    0.0000 C   0  0
    2.7084   -4.4629    0.0000 C   0  0
    4.1861   -4.2050    0.0000 C   0  0
    1.7461   -3.3113    0.0000 C   0  0
    2.2614   -1.9017    0.0000 C   0  0
    1.2990   -0.7500    0.0000 C   0  0
    1.2990    0.7500    0.0000 C   0  0
    2.5981    1.5000    0.0000 O   0  0
    0.0000    1.5000    0.0000 C   0  0
   -1.2990    0.7500    0.0000 C   0  0
   -1.2990   -0.7500    0.0000 C   0  0
    0.0000   -1.5000    0.0000 C   0  0
    0.0000   -3.0000    0.0000 O   0  0
   -2.5981   -1.5000    0.0000 C   0  0
   -2.5981   -3.0000    0.0000 O   0  0
   -3.8971   -0.7500    0.0000 C   0  0
   -5.1962   -1.5000    0.0000 C   0  0
   -6.4952   -0.7500    0.0000 C   0  0  3  0  0  0
   -6.4952    0.7500    0.0000 C   0  0
   -7.7942    1.5000    0.0000 O   0  0
   -5.1962    1.5000    0.0000 C   0  0  3  0  0  0
   -6.7069    1.5943    0.0000 C   0  0
   -7.3898    2.9308    0.0000 C   0  0
   -8.8886    3.0086    0.0000 C   0  0
   -9.5711    4.3443    0.0000 C   0  0
   -9.7045    1.7499    0.0000 C   0  0
   -6.6281    1.4607    0.0000 O   0  0
   -5.8781    2.7597    0.0000 C   0  0
   -5.1962    1.5000    0.0000 C   0  0  2  0  0  0
   -6.4952    0.7500    0.0000 C   0  0  1  0  0  0
   -7.9738    0.4924    0.0000 C   0  0
   -8.4909   -0.9165    0.0000 N   0  0
   -9.9683   -1.1761    0.0000 C   0  0
  -10.4822   -2.5853    0.0000 C   0  0
   -9.5188   -3.7350    0.0000 C   0  0
   -8.0414   -3.4755    0.0000 C   0  0
   -7.5274   -2.0663    0.0000 C   0  0
   -3.8971    0.7500    0.0000 C   0  0  3  0  0  0
   -2.5981    1.5000    0.0000 O   0  0
  1  2  1  0
  2  3  1  0
  2  4  2  0
  4  5  1  0
  5  6  1  0
  6  7  2  0
  7  8  1  0
  7  9  1  0
  9 10  2  0
 10 11  1  0
 11 12  2  0
 12  6  1  0
 12 13  1  0
 11 14  1  0
 14 15  2  0
 14 16  1  0
 16 17  2  0
 18 17  1  1
 18 19  1  0
 19 20  2  0
 19 21  1  0
 21 22  1  4
 22 23  1  0
 23 24  2  0
 24 25  1  0
 24 26  1  0
 21 27  1  0
 27 28  1  0
 29 28  1  1
 29 30  1  0
 30 18  1  0
 30 31  1  6
 31 32  1  0
 32 33  1  0
 33 34  1  0
 34 35  1  0
 35 36  1  0
 36 37  1  0
 37 32  1  0
 29 38  1  0
 38 16  1  0
 38 21  1  0
 38 39  1  1
 39 10  1  0
M  END
> <Smiles>
CC(C)=CCc1c(O)cc2c(c1O)C(=O)C1=C[C@H]3C(=O)C4(CC=C(C)C)OC[C@H]([C@H]3CN3CCCCC3)[C@]14O2

> <ID>
CHEMBL2336117

> <standard_value>
25100

> <IC50_uM>
25.1

> <Activity>
No

> <pIC50>
4.600326279

> <BCI>
0

$$$$

  SciTegic03012415362D

 28 31  0  0  0  0            999 V2000
    0.7077   -8.3622    0.0000 O   0  0
   -0.7600   -8.0526    0.0000 C   0  0
   -1.2256   -6.6258    0.0000 N   0  0
   -0.2234   -5.5086    0.0000 C   0  0
   -0.6890   -4.0818    0.0000 C   0  0
    0.3114   -2.9665    0.0000 C   0  0
    1.8032   -3.1233    0.0000 C   0  0
    2.4133   -1.7530    0.0000 N   0  0
    1.2990   -0.7500    0.0000 C   0  0
    1.2990    0.7500    0.0000 C   0  0
    0.0000    1.5000    0.0000 C   0  0
   -1.2990    0.7500    0.0000 C   0  0
   -1.2990   -0.7500    0.0000 C   0  0
    0.0000   -1.5000    0.0000 C   0  0
   -1.7622   -9.1698    0.0000 C   0  0
   -3.2294   -8.8578    0.0000 C   0  0
   -4.2333   -9.9723    0.0000 C   0  0
   -3.7700  -11.3990    0.0000 C   0  0
   -2.3028  -11.7111    0.0000 C   0  0
   -1.2990  -10.5965    0.0000 C   0  0
    0.1684  -10.9119    0.0000 N   0  0
    0.6299  -12.3400    0.0000 C   0  0
    2.0959  -12.6573    0.0000 C   0  0
    2.5543  -14.0856    0.0000 N   0  0
    1.5465  -15.1966    0.0000 C   0  0
    0.0804  -14.8794    0.0000 C   0  0
   -0.9273  -15.9904    0.0000 Br  0  0
   -0.3779  -13.4511    0.0000 C   0  0
  1  2  2  0
  2  3  1  0
  3  4  1  0
  4  5  1  0
  5  6  1  0
  6  7  2  0
  7  8  1  0
  8  9  1  0
  9 10  2  0
 10 11  1  0
 11 12  2  0
 12 13  1  0
 13 14  2  0
 14  6  1  0
 14  9  1  0
  2 15  1  0
 15 16  2  0
 16 17  1  0
 17 18  2  0
 18 19  1  0
 19 20  2  0
 20 15  1  0
 20 21  1  0
 21 22  1  0
 22 23  2  0
 23 24  1  0
 24 25  2  0
 25 26  1  0
 26 27  1  0
 26 28  2  0
 28 22  1  0
M  END
> <Smiles>
O=C(NCCc1c[nH]c2ccccc12)c1ccccc1Nc1cncc(Br)c1

> <ID>
CHEMBL4876947

> <standard_value>
25120

> <IC50_uM>
25.12

> <Activity>
No

> <pIC50>
4.599980365

> <BCI>
0

$$$$

  SciTegic03012415362D

 27 30  0  0  0  0            999 V2000
    0.7077   -8.3622    0.0000 O   0  0
   -0.7600   -8.0526    0.0000 C   0  0
   -1.2256   -6.6258    0.0000 N   0  0
   -0.2234   -5.5086    0.0000 C   0  0
   -0.6890   -4.0818    0.0000 C   0  0
    0.3114   -2.9665    0.0000 C   0  0
    1.8032   -3.1233    0.0000 C   0  0
    2.4133   -1.7530    0.0000 N   0  0
    1.2990   -0.7500    0.0000 C   0  0
    1.2990    0.7500    0.0000 C   0  0
    0.0000    1.5000    0.0000 C   0  0
   -1.2990    0.7500    0.0000 C   0  0
   -1.2990   -0.7500    0.0000 C   0  0
    0.0000   -1.5000    0.0000 C   0  0
   -1.7622   -9.1698    0.0000 C   0  0
   -3.2294   -8.8578    0.0000 C   0  0
   -4.2333   -9.9723    0.0000 C   0  0
   -3.7700  -11.3990    0.0000 C   0  0
   -2.3028  -11.7111    0.0000 C   0  0
   -1.2990  -10.5965    0.0000 C   0  0
    0.1684  -10.9119    0.0000 N   0  0
    0.6299  -12.3400    0.0000 C   0  0
    2.0959  -12.6573    0.0000 C   0  0
    2.5543  -14.0856    0.0000 C   0  0
    1.5465  -15.1966    0.0000 C   0  0
    0.0804  -14.8794    0.0000 N   0  0
   -0.3779  -13.4511    0.0000 C   0  0
  1  2  2  0
  2  3  1  0
  3  4  1  0
  4  5  1  0
  5  6  1  0
  6  7  2  0
  7  8  1  0
  8  9  1  0
  9 10  2  0
 10 11  1  0
 11 12  2  0
 12 13  1  0
 13 14  2  0
 14  6  1  0
 14  9  1  0
  2 15  1  0
 15 16  2  0
 16 17  1  0
 17 18  2  0
 18 19  1  0
 19 20  2  0
 20 15  1  0
 20 21  1  0
 21 22  1  0
 22 23  2  0
 23 24  1  0
 24 25  2  0
 25 26  1  0
 26 27  2  0
 27 22  1  0
M  END
> <Smiles>
O=C(NCCc1c[nH]c2ccccc12)c1ccccc1Nc1cccnc1

> <ID>
CHEMBL4871719

> <standard_value>
25190

> <IC50_uM>
25.19

> <Activity>
No

> <pIC50>
4.598771833

> <BCI>
0

$$$$

  SciTegic03012415362D

 22 24  0  0  0  0            999 V2000
    1.7978   -5.7203    0.0000 C   0  0
    2.5497   -4.4224    0.0000 C   0  0
    4.0497   -4.4250    0.0000 C   0  0
    1.8032   -3.1233    0.0000 C   0  0
    2.4133   -1.7530    0.0000 C   0  0
    1.2990   -0.7500    0.0000 C   0  0
    1.2990    0.7500    0.0000 N   0  0
    0.0000    1.5000    0.0000 C   0  0
    0.0000    3.0008    0.0000 C   0  0
    1.2978    3.7529    0.0000 C   0  0
    1.2954    5.2529    0.0000 C   0  0
   -0.0048    6.0009    0.0000 C   0  0
   -0.0103    7.5017    0.0000 N   0  3
   -1.3116    8.2478    0.0000 O   0  0
    1.2863    8.2560    0.0000 O   0  5
   -1.3026    5.2488    0.0000 C   0  0
   -1.3002    3.7488    0.0000 C   0  0
   -1.2990    0.7500    0.0000 C   0  0
   -1.2990   -0.7500    0.0000 C   0  0
   -2.5981   -1.5000    0.0000 O   0  0
    0.0000   -1.5000    0.0000 N   0  0
    0.3114   -2.9665    0.0000 N   0  0
  1  2  1  0
  2  3  1  0
  2  4  1  0
  4  5  1  0
  5  6  2  0
  6  7  1  0
  7  8  1  0
  8  9  1  0
  9 10  2  0
 10 11  1  0
 11 12  2  0
 12 13  1  0
 13 14  2  0
 13 15  1  0
 12 16  1  0
 16 17  2  0
 17  9  1  0
  8 18  2  0
 18 19  1  0
 19 20  2  0
 19 21  1  0
 21  6  1  0
 21 22  1  0
 22  4  2  0
M  CHG  2  13   1  15  -1
M  END
> <Smiles>
CC(C)c1cc2[nH]c(-c3ccc([N+](=O)[O-])cc3)cc(=O)n2n1

> <ID>
CHEMBL4867428

> <standard_value>
25510

> <IC50_uM>
25.51

> <Activity>
No

> <pIC50>
4.593289541

> <BCI>
0

$$$$

  SciTegic03012415362D

 30 31  0  0  1  0            999 V2000
    3.8999   -5.2449    0.0000 C   0  0
    3.9003   -3.7449    0.0000 O   0  0
    5.1998   -2.9940    0.0000 C   0  0
    6.4989   -3.7440    0.0000 O   0  0
    5.2003   -1.4932    0.0000 C   0  0  2  0  0  0
    6.4990   -0.7409    0.0000 C   0  0
    7.8003   -1.4887    0.0000 C   0  0
    9.0990   -0.7364    0.0000 S   0  0
   10.3996   -1.4837    0.0000 C   0  0
    3.8990   -0.7455    0.0000 N   0  0
    2.6003   -1.4977    0.0000 C   0  0
    2.6030   -2.9977    0.0000 O   0  0
    1.2990   -0.7500    0.0000 C   0  0
    1.2990    0.7500    0.0000 C   0  0
    0.0000    1.5000    0.0000 C   0  0
   -1.2990    0.7500    0.0000 C   0  0
   -2.6003    1.4977    0.0000 N   0  0
   -3.8990    0.7455    0.0000 C   0  0
   -5.2003    1.4932    0.0000 C   0  0  1  0  0  0
   -5.2029    2.9932    0.0000 N   0  0
   -6.4990    0.7409    0.0000 C   0  0
   -7.7996    1.4882    0.0000 S   0  0
   -1.2990   -0.7500    0.0000 C   0  0
    0.0000   -1.5000    0.0000 C   0  0
    0.0000   -3.0008    0.0000 C   0  0
   -1.2978   -3.7529    0.0000 C   0  0
   -1.2955   -5.2529    0.0000 C   0  0
    0.0048   -6.0009    0.0000 C   0  0
    1.3026   -5.2488    0.0000 C   0  0
    1.3002   -3.7488    0.0000 C   0  0
  1  2  1  0
  2  3  1  0
  3  4  2  0
  3  5  1  0
  5  6  1  1
  6  7  1  0
  7  8  1  0
  8  9  1  0
  5 10  1  0
 10 11  1  0
 11 12  2  0
 11 13  1  0
 13 14  2  0
 14 15  1  0
 15 16  2  0
 16 17  1  0
 17 18  1  0
 18 19  1  0
 19 20  1  6
 19 21  1  0
 21 22  1  0
 16 23  1  0
 23 24  2  0
 24 13  1  0
 24 25  1  0
 25 26  2  0
 26 27  1  0
 27 28  2  0
 28 29  1  0
 29 30  2  0
 30 25  1  0
M  END
> <Smiles>
COC(=O)[C@H](CCSC)NC(=O)c1ccc(NC[C@@H](N)CS)cc1-c1ccccc1

> <ID>
CHEMBL135561

> <standard_value>
25541.49

> <IC50_uM>
25.54149

> <Activity>
No

> <pIC50>
4.592753771

> <BCI>
0

$$$$

  SciTegic03012415362D

 26 30  0  0  1  0            999 V2000
    3.1049   -0.9827    0.0000 C   0  0
    2.0479   -2.0470    0.0000 C   0  0
    2.4314   -3.4971    0.0000 C   0  0
    1.2990   -0.7500    0.0000 C   0  0  2  0  0  0
    1.2990    0.7500    0.0000 C   0  0
    2.5981    1.5000    0.0000 C   0  0
    3.8994    0.7523    0.0000 C   0  0
    5.1981    1.5046    0.0000 C   0  0
    6.4994    0.7568    0.0000 C   0  0
    7.7984    1.5068    0.0000 C   0  0
    9.0975    0.7569    0.0000 C   0  0
    9.0976   -0.7431    0.0000 C   0  0
    7.7985   -1.4932    0.0000 C   0  0
    6.4995   -0.7432    0.0000 C   0  0
    2.5981    3.0000    0.0000 C   0  0
    1.2990    3.7500    0.0000 C   0  0
    1.2990    5.2500    0.0000 O   0  0
    0.0000    3.0000    0.0000 C   0  0
    0.0000    1.5000    0.0000 C   0  0
   -1.2990    0.7500    0.0000 O   0  0
   -1.2990   -0.7500    0.0000 C   0  0  2  0  0  0
   -2.7732   -0.4727    0.0000 C   0  0
   -1.9303   -2.3686    0.0000 C   0  0
   -0.8696   -3.4292    0.0000 C   0  0
    0.7488   -2.7970    0.0000 C   0  0  1  0  0  0
    0.0000   -1.5000    0.0000 C   0  0  2  0  0  0
  1  2  1  0
  2  3  1  0
  2  4  1  0
  4  5  1  1
  5  6  2  0
  6  7  1  0
  7  8  1  0
  8  9  1  0
  9 10  2  0
 10 11  1  0
 11 12  2  0
 12 13  1  0
 13 14  2  0
 14  9  1  0
  6 15  1  0
 15 16  2  0
 16 17  1  0
 16 18  1  0
 18 19  2  0
 19  5  1  0
 19 20  1  0
 20 21  1  0
 21 22  1  6
 21 23  1  0
 23 24  1  0
 25 24  1  1
 25  2  1  0
 26 25  1  1
 26  4  1  0
 26 21  1  0
M  END
> <Smiles>
CC1(C)[C@@H]2c3c(CCc4ccccc4)cc(O)cc3O[C@]3(C)CC[C@H]1[C@H]23

> <ID>
CHEMBL4519306

> <standard_value>
25600

> <IC50_uM>
25.6

> <Activity>
No

> <pIC50>
4.591760035

> <BCI>
0

$$$$

  SciTegic03012415362D

 38 42  0  0  1  0            999 V2000
    3.8912   -5.2570    0.0000 C   0  0
    3.8933   -3.7570    0.0000 C   0  0
    2.5951   -3.0039    0.0000 N   0  0
    1.2925   -3.7494    0.0000 C   0  0
   -0.0041   -2.9953    0.0000 C   0  0
    2.5973   -1.5031    0.0000 C   0  0
    1.2990   -0.7500    0.0000 C   0  0  2  0  0  0
    1.2990    0.7500    0.0000 C   0  0  1  0  0  0
    0.7500   -0.7205    0.0000 C   0  0
   -0.7500   -0.7205    0.0000 O   0  0
   -1.2990    0.7500    0.0000 C   0  0  3  0  0  0
   -1.7996   -0.6800    0.0000 C   0  0
   -0.8399   -1.8338    0.0000 C   0  0
   -1.3585   -3.2422    0.0000 C   0  0
   -0.3993   -4.3955    0.0000 C   0  0
   -2.8367   -3.4968    0.0000 C   0  0
   -1.2990   -0.7500    0.0000 C   0  0
   -2.5981   -1.5000    0.0000 O   0  0
    0.0000   -1.5000    0.0000 C   0  0  2  0  0  0
    1.1367    0.4746    0.0000 C   0  0
   -0.7043    2.8783    0.0000 C   0  0
    0.0457    4.1773    0.0000 C   0  0
   -0.7043    5.4764    0.0000 O   0  0
    1.5457    4.1773    0.0000 C   0  0
    2.2957    2.8783    0.0000 C   0  0
    3.7957    2.8783    0.0000 C   0  0
    4.5457    4.1773    0.0000 C   0  0
    6.0457    4.1773    0.0000 O   0  0
    3.7957    5.4764    0.0000 C   0  0
    4.5435    6.7777    0.0000 C   0  0
    3.7912    8.0764    0.0000 C   0  0
    4.5389    9.3777    0.0000 C   0  0
    3.7871   10.6756    0.0000 C   0  0
    6.0389    9.3803    0.0000 C   0  0
    2.2957    5.4764    0.0000 C   0  0
    1.5457    6.7754    0.0000 O   0  0
    1.5457    1.5793    0.0000 O   0  0
    0.0000    1.5000    0.0000 C   0  0  1  0  0  0
  1  2  1  0
  2  3  1  0
  3  4  1  0
  4  5  1  0
  3  6  1  0
  7  6  1  1
  7  8  1  0
  8  9  1  6
  9 10  1  0
 10 11  1  0
 11 12  1  4
 12 13  1  0
 13 14  2  0
 14 15  1  0
 14 16  1  0
 11 17  1  0
 17 18  2  0
 17 19  1  0
 19  7  1  0
 19 20  1  1
 20 21  2  0
 21 22  1  0
 22 23  2  0
 22 24  1  0
 24 25  2  0
 25 26  1  0
 26 27  2  0
 27 28  1  0
 27 29  1  0
 29 30  1  0
 30 31  1  0
 31 32  2  0
 32 33  1  0
 32 34  1  0
 29 35  2  0
 35 24  1  0
 35 36  1  0
 25 37  1  0
 38 37  1  6
 38 21  1  0
 38  8  1  0
 38 11  1  0
M  END
> <Smiles>
CCN(CC)C[C@@H]1[C@H]2COC3(CC=C(C)C)C(=O)[C@@H]1C=C1C(=O)c4c(cc(O)c(CC=C(C)C)c4O)O[C@]123

> <ID>
CHEMBL2336124

> <standard_value>
26000

> <IC50_uM>
26

> <Activity>
No

> <pIC50>
4.585026652

> <BCI>
0

$$$$

  SciTegic03012415362D

 22 24  0  0  0  0            999 V2000
    2.5951   -3.0031    0.0000 C   0  0
    2.5973   -1.5031    0.0000 O   0  0
    1.2990   -0.7500    0.0000 C   0  0
    1.2990    0.7500    0.0000 C   0  0
    0.0000    1.5000    0.0000 C   0  0
    0.0031    3.0008    0.0000 C   0  0
    1.3039    3.7494    0.0000 C   0  0
    1.3070    5.2502    0.0000 C   0  0
    2.6060    6.0003    0.0000 C   0  0
    2.6060    7.5003    0.0000 C   0  0
    1.3070    8.2503    0.0000 C   0  0
    0.0079    7.5003    0.0000 C   0  0
    0.0079    6.0003    0.0000 C   0  0
   -1.2990    0.7500    0.0000 C   0  0
   -1.2990   -0.7500    0.0000 C   0  0
    0.0000   -1.5000    0.0000 C   0  0
   -2.5981   -1.5000    0.0000 O   0  0
   -3.8971   -0.7500    0.0000 C   0  0
   -3.8617   -2.2496    0.0000 C   0  0
   -5.1782    0.0303    0.0000 C   0  0
   -3.8971    0.7500    0.0000 C   0  0
   -2.5981    1.5000    0.0000 C   0  0
  1  2  1  0
  2  3  1  0
  3  4  2  0
  4  5  1  0
  5  6  1  0
  6  7  1  0
  7  8  1  0
  8  9  2  0
  9 10  1  0
 10 11  2  0
 11 12  1  0
 12 13  2  0
 13  8  1  0
  5 14  2  0
 14 15  1  0
 15 16  2  0
 16  3  1  0
 15 17  1  0
 17 18  1  0
 18 19  1  0
 18 20  1  0
 18 21  1  0
 21 22  1  0
 22 14  1  0
M  END
> <Smiles>
COc1cc(CCc2ccccc2)c2c(c1)OC(C)(C)CC2

> <ID>
CHEMBL4593511

> <standard_value>
26100

> <IC50_uM>
26.1

> <Activity>
No

> <pIC50>
4.583359493

> <BCI>
0

$$$$

  SciTegic03012415362D

 58 62  0  0  1  0            999 V2000
    0.2031   -4.6600    0.0000 C   0  0
    0.2100   -3.1600    0.0000 C   0  0  2  0  0  0
    1.5100   -2.4200    0.0000 N   0  0
    2.8000   -3.1700    0.0000 C   0  0
    2.7956   -4.6700    0.0000 O   0  0
    4.0900   -2.4300    0.0000 C   0  0  2  0  0  0
    5.3805   -3.1967    0.0000 C   0  0
    5.3626   -4.6974    0.0000 C   0  0
    6.6511   -5.4655    0.0000 C   0  0
    6.6302   -6.9654    0.0000 C   0  0
    5.3209   -7.6972    0.0000 C   0  0
    5.3000   -9.1971    0.0000 O   0  0
    4.0324   -6.9292    0.0000 C   0  0
    4.0532   -5.4294    0.0000 C   0  0
    4.1100   -0.9300    0.0000 N   0  0
    2.8183   -0.1674    0.0000 C   0  0
    5.4100   -0.1900    0.0000 C   0  0
    6.7042   -0.9483    0.0000 O   0  0
    5.4200    1.3000    0.0000 C   0  0  2  0  0  0
    6.7279    2.0361    0.0000 C   0  0
    8.0198    1.2722    0.0000 C   0  0
    9.3278    2.0082    0.0000 C   0  0
   10.6189    1.2447    0.0000 O   0  0
    9.3438    3.5081    0.0000 O   0  0
    4.1200    2.0600    0.0000 N   0  0
    4.1300    3.5500    0.0000 C   0  0
    5.4327    4.2937    0.0000 O   0  0
    2.8400    4.3000    0.0000 C   0  0  1  0  0  0
    2.8537    5.7999    0.0000 C   0  0
    1.5300    3.5700    0.0000 N   0  0
    0.2400    4.3200    0.0000 C   0  0
    0.2444    5.8200    0.0000 O   0  0
   -1.0500    3.5800    0.0000 C   0  0  2  0  0  0
   -2.7000    5.1600    0.0000 C   0  0
   -4.3200    5.1400    0.0000 C   0  0
   -5.0500    6.4600    0.0000 C   0  0
   -6.5400    6.4700    0.0000 C   0  0
   -7.3100    5.1800    0.0000 C   0  0
   -8.8099    5.1974    0.0000 O   0  0
   -6.5800    3.8900    0.0000 C   0  0
   -5.0900    3.8600    0.0000 C   0  0
   -7.6300    2.5700    0.0000 O   0  0
   -7.0000    1.3200    0.0000 C   0  0
   -5.5600    1.7200    0.0000 C   0  0
   -4.5000    0.6500    0.0000 C   0  0
   -4.8800   -0.7900    0.0000 C   0  0
   -6.3400   -1.1700    0.0000 C   0  0
   -7.3900   -0.1200    0.0000 C   0  0
   -3.5800   -1.3300    0.0000 C   0  0
   -2.3600   -0.1500    0.0000 C   0  0  1  0  0  0
   -2.3600    1.3400    0.0000 C   0  0
   -3.6567    2.0940    0.0000 O   0  0
   -1.0600    2.0800    0.0000 N   0  0
    0.2342    1.3217    0.0000 C   0  0
   -1.0700   -0.9100    0.0000 N   0  0
    0.2348   -0.1701    0.0000 C   0  0
   -1.0800   -2.4100    0.0000 C   0  0
   -2.3827   -3.1537    0.0000 O   0  0
  2  1  1  1
  2  3  1  0
  3  4  1  0
  4  5  2  0
  4  6  1  0
  6  7  1  1
  7  8  1  0
  8  9  2  0
  9 10  1  0
 10 11  2  0
 11 12  1  0
 11 13  1  0
 13 14  2  0
 14  8  1  0
  6 15  1  0
 15 16  1  0
 15 17  1  0
 17 18  2  0
 17 19  1  0
 19 20  1  1
 20 21  1  0
 21 22  1  0
 22 23  2  0
 22 24  1  0
 19 25  1  0
 25 26  1  0
 26 27  2  0
 26 28  1  0
 28 29  1  6
 28 30  1  0
 30 31  1  0
 31 32  2  0
 31 33  1  0
 33 34  1  1
 34 35  1  0
 35 36  2  0
 36 37  1  0
 37 38  2  0
 38 39  1  0
 38 40  1  0
 40 41  2  0
 41 35  1  0
 40 42  1  0
 42 43  1  0
 43 44  2  0
 44 45  1  0
 45 46  2  0
 46 47  1  0
 47 48  2  0
 48 43  1  0
 46 49  1  0
 50 49  1  1
 50 51  1  0
 51 52  2  0
 51 53  1  0
 53 33  1  0
 53 54  1  0
 50 55  1  0
 55 56  1  0
 55 57  1  0
 57  2  1  0
 57 58  2  0
M  END
> <Smiles>
C[C@@H]1NC(=O)[C@H](Cc2ccc(O)cc2)N(C)C(=O)[C@H](CCC(=O)O)NC(=O)[C@@H](C)NC(=O)[C@@H]2Cc3ccc(O)c(c3)Oc3ccc(cc3)C[C@@H](C(=O)N2C)N(C)C1=O

> <ID>
CHEMBL1288983

> <standard_value>
26250

> <IC50_uM>
26.25

> <Activity>
No

> <pIC50>
4.580870692

> <BCI>
0

$$$$

  SciTegic03012415362D

 28 31  0  0  0  0            999 V2000
    0.7077   -8.3622    0.0000 O   0  0
   -0.7600   -8.0526    0.0000 C   0  0
   -1.2256   -6.6258    0.0000 N   0  0
   -0.2234   -5.5086    0.0000 C   0  0
   -0.6890   -4.0818    0.0000 C   0  0
    0.3114   -2.9665    0.0000 C   0  0
    1.8032   -3.1233    0.0000 C   0  0
    2.4133   -1.7530    0.0000 N   0  0
    1.2990   -0.7500    0.0000 C   0  0
    1.2990    0.7500    0.0000 C   0  0
    0.0000    1.5000    0.0000 C   0  0
   -1.2990    0.7500    0.0000 C   0  0
   -1.2990   -0.7500    0.0000 C   0  0
    0.0000   -1.5000    0.0000 C   0  0
   -1.7622   -9.1698    0.0000 C   0  0
   -3.2294   -8.8578    0.0000 C   0  0
   -4.2333   -9.9723    0.0000 C   0  0
   -3.7700  -11.3990    0.0000 C   0  0
   -2.3028  -11.7111    0.0000 C   0  0
   -1.2990  -10.5965    0.0000 C   0  0
    0.1684  -10.9119    0.0000 N   0  0
    0.6299  -12.3400    0.0000 C   0  0
   -0.3779  -13.4511    0.0000 C   0  0
    0.0804  -14.8794    0.0000 C   0  0
    1.5465  -15.1966    0.0000 C   0  0
    2.5543  -14.0855    0.0000 C   0  0
    2.0959  -12.6573    0.0000 C   0  0
    3.1037  -11.5463    0.0000 F   0  0
  1  2  2  0
  2  3  1  0
  3  4  1  0
  4  5  1  0
  5  6  1  0
  6  7  2  0
  7  8  1  0
  8  9  1  0
  9 10  2  0
 10 11  1  0
 11 12  2  0
 12 13  1  0
 13 14  2  0
 14  6  1  0
 14  9  1  0
  2 15  1  0
 15 16  2  0
 16 17  1  0
 17 18  2  0
 18 19  1  0
 19 20  2  0
 20 15  1  0
 20 21  1  0
 21 22  1  0
 22 23  2  0
 23 24  1  0
 24 25  2  0
 25 26  1  0
 26 27  2  0
 27 22  1  0
 27 28  1  0
M  END
> <Smiles>
O=C(NCCc1c[nH]c2ccccc12)c1ccccc1Nc1ccccc1F

> <ID>
CHEMBL4872909

> <standard_value>
26250

> <IC50_uM>
26.25

> <Activity>
No

> <pIC50>
4.580870692

> <BCI>
0

$$$$

  SciTegic03012415362D

 33 36  0  0  0  0            999 V2000
    3.8983   -0.7459    0.0000 C   0  0
    2.6003   -1.4977    0.0000 O   0  0
    1.2990   -0.7500    0.0000 C   0  0
    1.2990    0.7500    0.0000 C   0  0
    0.0000    1.5000    0.0000 C   0  0
    0.0000    3.0000    0.0000 N   0  0
   -1.2991    3.7500    0.0000 C   0  0
   -1.2991    5.2507    0.0000 N   0  0
   -0.0012    6.0029    0.0000 C   0  0
   -0.0036    7.5029    0.0000 C   0  0
   -1.3039    8.2509    0.0000 N   0  0
   -1.3093    9.7517    0.0000 C   0  0
   -0.0128   10.5060    0.0000 O   0  0
   -2.6114   10.4982    0.0000 C   0  0
   -3.9067    9.7416    0.0000 C   0  0
   -5.2095   10.4851    0.0000 C   0  0
   -5.2171   11.9851    0.0000 C   0  0
   -6.5191   12.7316    0.0000 N   0  3
   -6.5245   14.2316    0.0000 O   0  0
   -7.8156   11.9773    0.0000 O   0  5
   -3.9218   12.7416    0.0000 C   0  0
   -2.6190   11.9982    0.0000 C   0  0
   -1.3238   12.7548    0.0000 Cl  0  0
   -2.6017    7.4988    0.0000 C   0  0
   -2.5993    5.9988    0.0000 C   0  0
   -2.5981    3.0000    0.0000 N   0  0
   -2.5981    1.5000    0.0000 C   0  0
   -3.8971    0.7500    0.0000 N   0  0
   -1.2990    0.7500    0.0000 C   0  0
   -1.2990   -0.7500    0.0000 C   0  0
    0.0000   -1.5000    0.0000 C   0  0
   -0.0031   -3.0008    0.0000 O   0  0
   -1.3032   -3.7490    0.0000 C   0  0
  1  2  1  0
  2  3  1  0
  3  4  2  0
  4  5  1  0
  5  6  2  0
  6  7  1  0
  7  8  1  0
  8  9  1  0
  9 10  1  0
 10 11  1  0
 11 12  1  0
 12 13  2  0
 12 14  1  0
 14 15  2  0
 15 16  1  0
 16 17  2  0
 17 18  1  0
 18 19  2  0
 18 20  1  0
 17 21  1  0
 21 22  2  0
 22 14  1  0
 22 23  1  0
 11 24  1  0
 24 25  1  0
 25  8  1  0
  7 26  2  0
 26 27  1  0
 27 28  1  0
 27 29  2  0
 29  5  1  0
 29 30  1  0
 30 31  2  0
 31  3  1  0
 31 32  1  0
 32 33  1  0
M  CHG  2  18   1  20  -1
M  END
> <Smiles>
COc1cc2nc(N3CCN(C(=O)c4ccc([N+](=O)[O-])cc4Cl)CC3)nc(N)c2cc1OC

> <ID>
CHEMBL4788507

> <standard_value>
26430

> <IC50_uM>
26.43

> <Activity>
No

> <pIC50>
4.577902837

> <BCI>
0

$$$$

  SciTegic03012415362D

 35 40  0  0  1  0            999 V2000
   -3.0984   -4.6211    0.0000 C   0  0
   -4.4151   -3.9027    0.0000 C   0  0
   -5.7318   -4.6213    0.0000 C   0  0
   -5.6963   -3.1734    0.0000 C   0  0
   -6.9921   -3.9307    0.0000 N   0  0
   -8.2957   -3.1885    0.0000 O   0  0
   -5.6963   -1.6754    0.0000 C   0  0
   -4.4151   -0.9264    0.0000 C   0  0
   -3.1340   -1.6754    0.0000 C   0  0  2  0  0  0
   -3.1340    0.0394    0.0000 C   0  0
   -1.8528   -0.8870    0.0000 C   0  0  2  0  0  0
   -1.8331    0.5322    0.0000 C   0  0
   -0.5322    1.2812    0.0000 C   0  0
    0.7096    0.5322    0.0000 C   0  0  2  0  0  0
    0.8199    1.5261    0.0000 C   0  0
    2.1287    1.0052    0.0000 C   0  0  3  0  0  0
    2.5556    2.4434    0.0000 C   0  0  2  0  0  0
    4.0153    2.7890    0.0000 C   0  0
    1.1117    2.2043    0.0000 C   0  0
    0.4684    3.5593    0.0000 C   0  0
    1.5584    4.5898    0.0000 C   0  0  2  0  0  0
    1.3656    6.0756    0.0000 C   0  0
    2.5576    6.9862    0.0000 C   0  0
    1.1733    7.5633    0.0000 C   0  0
   -0.0188    6.6531    0.0000 O   0  0
    2.8753    3.8717    0.0000 O   0  0
    3.0157    0.0000    0.0000 C   0  0  1  0  0  0
    4.5110    0.1184    0.0000 O   0  0
    2.1287   -1.3994    0.0000 C   0  0
    0.7096   -0.9264    0.0000 C   0  0  2  0  0  0
    0.8750   -2.4172    0.0000 C   0  0
   -0.5322   -1.6754    0.0000 C   0  0  3  0  0  0
   -0.5322   -3.1734    0.0000 C   0  0
   -1.8331   -3.9027    0.0000 C   0  0
   -3.1340   -3.1734    0.0000 C   0  0  3  0  0  0
  1  2  1  0
  2  3  1  0
  2  4  1  0
  4  5  2  0
  5  6  1  0
  4  7  1  0
  7  8  2  0
  9  8  1  6
  9 10  1  0
 11 10  1  1
 11  9  1  0
 11 12  1  0
 12 13  1  0
 13 14  1  0
 14 15  1  1
 16 14  1  4
 16 17  1  0
 17 18  1  1
 17 19  1  0
 19 20  1  0
 20 21  1  0
 21 22  1  6
 22 23  1  0
 22 24  1  0
 22 25  1  0
 21 26  1  0
 26 17  1  0
 16 27  1  0
 27 28  1  1
 27 29  1  0
 29 30  1  0
 30 14  1  0
 30 31  1  6
 30 32  1  0
 32 11  1  0
 32 33  1  4
 33 34  1  0
 35 34  1  4
 35  2  1  0
 35  9  1  0
M  END
> <Smiles>
CC1(C)/C(=N/O)C=C[C@]23C[C@]24CC[C@]2(C)C([C@]5(C)CC[C@H](C(C)(C)O)O5)[C@@H](O)C[C@@]2(C)C4CCC13

> <ID>
CHEMBL182093

> <standard_value>
26790

> <IC50_uM>
26.79

> <Activity>
No

> <pIC50>
4.572027286

> <BCI>
0

$$$$

  SciTegic03012415362D

 34 34  0  0  0  0            999 V2000
   16.8519  -27.7961    0.0000 C   0  0
   16.8540  -26.2961    0.0000 C   0  0
   15.5558  -25.5430    0.0000 C   0  0
   15.5580  -24.0422    0.0000 C   0  0
   14.2598  -23.2891    0.0000 C   0  0
   14.2619  -21.7882    0.0000 C   0  0
   12.9637  -21.0352    0.0000 C   0  0
   12.9658  -19.5343    0.0000 C   0  0
   11.6676  -18.7813    0.0000 C   0  0
   11.6698  -17.2804    0.0000 C   0  0
   10.3716  -16.5273    0.0000 C   0  0
   10.3737  -15.0265    0.0000 C   0  0
    9.0755  -14.2734    0.0000 C   0  0
    9.0776  -12.7726    0.0000 C   0  0
    7.7794  -12.0195    0.0000 C   0  0
    7.7815  -10.5187    0.0000 C   0  0
    6.4833   -9.7656    0.0000 C   0  0
    6.4855   -8.2648    0.0000 C   0  0
    5.1873   -7.5117    0.0000 C   0  0
    5.1894   -6.0109    0.0000 C   0  0
    3.8912   -5.2578    0.0000 O   0  0
    3.8933   -3.7570    0.0000 C   0  0
    5.1937   -3.0093    0.0000 O   0  0
    2.5951   -3.0039    0.0000 C   0  0
    2.5973   -1.5031    0.0000 C   0  0
    1.2990   -0.7500    0.0000 C   0  0
    1.2990    0.7500    0.0000 C   0  0
    0.0000    1.5000    0.0000 C   0  0
   -1.2990    0.7500    0.0000 C   0  0
   -2.5981    1.5000    0.0000 O   0  0
   -1.2990   -0.7500    0.0000 C   0  0
   -2.5972   -1.5031    0.0000 O   0  0
   -2.5951   -3.0031    0.0000 C   0  0
    0.0000   -1.5000    0.0000 C   0  0
  1  2  1  0
  2  3  1  0
  3  4  1  0
  4  5  1  0
  5  6  1  0
  6  7  1  0
  7  8  1  0
  8  9  1  0
  9 10  1  0
 10 11  1  0
 11 12  1  0
 12 13  1  0
 13 14  1  0
 14 15  1  0
 15 16  1  0
 16 17  1  0
 17 18  1  0
 18 19  1  0
 19 20  1  0
 20 21  1  0
 21 22  1  0
 22 23  2  0
 22 24  1  0
 24 25  2  0
 25 26  1  0
 26 27  2  0
 27 28  1  0
 28 29  2  0
 29 30  1  0
 29 31  1  0
 31 32  1  0
 32 33  1  0
 31 34  2  0
 34 26  1  0
M  END
> <Smiles>
CCCCCCCCCCCCCCCCCCCCOC(=O)/C=C/c1ccc(O)c(OC)c1

> <ID>
CHEMBL3588938

> <standard_value>
26800

> <IC50_uM>
26.8

> <Activity>
No

> <pIC50>
4.571865206

> <BCI>
0

$$$$

  SciTegic03012415362D

 38 42  0  0  0  0            999 V2000
    9.0964   -0.7340    0.0000 C   0  0
    7.7980   -1.4850    0.0000 O   0  0
    6.4972   -0.7364    0.0000 C   0  0
    5.2007   -1.4909    0.0000 C   0  0
    3.8990   -0.7455    0.0000 C   0  0
    2.6003   -1.4977    0.0000 C   0  0
    2.6021   -2.4977    0.0000 O   0  0
    1.2990   -0.7500    0.0000 C   0  0
    1.2990    0.7500    0.0000 N   0  0
    0.0000    1.5000    0.0000 C   0  0
    0.0000    3.0000    0.0000 C   0  0
   -1.2991    3.7500    0.0000 C   0  0
   -2.5981    3.0000    0.0000 C   0  0
   -2.5981    1.5000    0.0000 C   0  0
   -1.2990    0.7500    0.0000 C   0  0
   -1.2990   -0.7500    0.0000 C   0  0
   -2.5981   -1.5000    0.0000 O   0  0
    0.0000   -1.5000    0.0000 N   0  0
    0.0031   -3.0008    0.0000 C   0  0
    1.3039   -3.7494    0.0000 C   0  0
    1.4469   -5.2297    0.0000 N   0  0
    2.9152   -5.5365    0.0000 N   0  0
    3.6607   -4.2349    0.0000 C   0  0
    5.1527   -4.0728    0.0000 C   0  0
    6.1233   -5.2100    0.0000 C   0  0
    7.5981   -4.9362    0.0000 C   0  0
    8.0984   -3.5222    0.0000 C   0  0
    9.5732   -3.2484    0.0000 C   0  0
    7.1240   -2.3818    0.0000 C   0  0
    5.6491   -2.6555    0.0000 C   0  0
    2.6532   -3.1236    0.0000 O   0  0
    3.8939    0.7546    0.0000 C   0  0
    5.1903    1.5091    0.0000 C   0  0
    5.1821    3.0099    0.0000 O   0  0
    3.8794    3.7535    0.0000 C   0  0
    6.4920    0.7636    0.0000 C   0  0
    7.7907    1.5158    0.0000 O   0  0
    9.0912    0.7685    0.0000 C   0  0
  1  2  1  0
  2  3  1  0
  3  4  2  0
  4  5  1  0
  5  6  1  0
  6  7  2  0
  6  8  1  0
  8  9  2  0
  9 10  1  0
 10 11  2  0
 11 12  1  0
 12 13  2  0
 13 14  1  0
 14 15  2  0
 15 10  1  0
 15 16  1  0
 16 17  2  0
 16 18  1  0
 18  8  1  0
 18 19  1  0
 19 20  1  0
 20 21  2  0
 21 22  1  0
 22 23  2  0
 23 24  1  0
 24 25  2  0
 25 26  1  0
 26 27  2  0
 27 28  1  0
 27 29  1  0
 29 30  2  0
 30 24  1  0
 23 31  1  0
 31 20  1  0
  5 32  2  0
 32 33  1  0
 33 34  1  0
 34 35  1  0
 33 36  2  0
 36  3  1  0
 36 37  1  0
 37 38  1  0
M  END
> <Smiles>
COc1cc(C(=O)c2nc3ccccc3c(=O)n2Cc2nnc(-c3ccc(C)cc3)o2)cc(OC)c1OC

> <ID>
CHEMBL4879379

> <standard_value>
26960

> <IC50_uM>
26.96

> <Activity>
No

> <pIC50>
4.569280112

> <BCI>
0

$$$$

  SciTegic03012415362D

 20 22  0  0  0  0            999 V2000
    2.5951   -3.0031    0.0000 C   0  0
    2.5973   -1.5031    0.0000 O   0  0
    1.2990   -0.7500    0.0000 C   0  0
    1.2990    0.7500    0.0000 C   0  0
    0.0000    1.5000    0.0000 C   0  0
    0.0000    3.0000    0.0000 O   0  0
   -1.2990    0.7500    0.0000 C   0  0
   -2.5981    1.5000    0.0000 C   0  0
   -2.5981    3.0000    0.0000 O   0  0
   -3.8971    0.7500    0.0000 C   0  0
   -5.1962    1.5000    0.0000 C   0  0
   -5.1962    3.0000    0.0000 O   0  0
   -6.4952    0.7500    0.0000 C   0  0
   -7.7942    1.4999    0.0000 O   0  0
   -6.4952   -0.7500    0.0000 C   0  0
   -5.1961   -1.5000    0.0000 C   0  0
   -3.8971   -0.7500    0.0000 C   0  0
   -2.5981   -1.5000    0.0000 O   0  0
   -1.2990   -0.7500    0.0000 C   0  0
    0.0000   -1.5000    0.0000 C   0  0
  1  2  1  0
  2  3  1  0
  3  4  2  0
  4  5  1  0
  5  6  1  0
  5  7  2  0
  7  8  1  0
  8  9  2  0
  8 10  1  0
 10 11  2  0
 11 12  1  0
 11 13  1  0
 13 14  1  0
 13 15  2  0
 15 16  1  0
 16 17  2  0
 17 10  1  0
 17 18  1  0
 18 19  1  0
 19  7  1  0
 19 20  2  0
 20  3  1  0
M  END
> <Smiles>
COc1cc(O)c2c(=O)c3c(O)c(O)ccc3oc2c1

> <ID>
CHEMBL187044

> <standard_value>
27300

> <IC50_uM>
27.3

> <Activity>
No

> <pIC50>
4.563837353

> <BCI>
0

$$$$

  SciTegic03012415362D

 34 39  0  0  1  0            999 V2000
   -3.0984   -4.6211    0.0000 C   0  0
   -4.4151   -3.9027    0.0000 C   0  0
   -5.7318   -4.6213    0.0000 C   0  0
   -5.6963   -3.1734    0.0000 C   0  0
   -6.9931   -3.9273    0.0000 O   0  0
   -5.6963   -1.6754    0.0000 C   0  0
   -4.4151   -0.9264    0.0000 C   0  0
   -3.1340   -1.6754    0.0000 C   0  0  2  0  0  0
   -3.1340    0.0394    0.0000 C   0  0
   -1.8528   -0.8870    0.0000 C   0  0  2  0  0  0
   -1.8331    0.5322    0.0000 C   0  0
   -0.5322    1.2812    0.0000 C   0  0
    0.7096    0.5322    0.0000 C   0  0  2  0  0  0
    0.8199    1.5261    0.0000 C   0  0
    2.1287    1.0052    0.0000 C   0  0  3  0  0  0
    2.5556    2.4434    0.0000 C   0  0  2  0  0  0
    4.0153    2.7890    0.0000 C   0  0
    1.1117    2.2043    0.0000 C   0  0
    0.4684    3.5593    0.0000 C   0  0
    1.5584    4.5898    0.0000 C   0  0  2  0  0  0
    1.3656    6.0756    0.0000 C   0  0
    2.5576    6.9862    0.0000 C   0  0
    1.1733    7.5633    0.0000 C   0  0
   -0.0188    6.6531    0.0000 O   0  0
    2.8753    3.8717    0.0000 O   0  0
    3.0157    0.0000    0.0000 C   0  0  1  0  0  0
    4.5110    0.1184    0.0000 O   0  0
    2.1287   -1.3994    0.0000 C   0  0
    0.7096   -0.9264    0.0000 C   0  0  2  0  0  0
    0.8750   -2.4172    0.0000 C   0  0
   -0.5322   -1.6754    0.0000 C   0  0  3  0  0  0
   -0.5322   -3.1734    0.0000 C   0  0
   -1.8331   -3.9027    0.0000 C   0  0
   -3.1340   -3.1734    0.0000 C   0  0  3  0  0  0
  1  2  1  0
  2  3  1  0
  2  4  1  0
  4  5  2  0
  4  6  1  0
  6  7  1  0
  8  7  1  6
  8  9  1  0
 10  9  1  1
 10  8  1  0
 10 11  1  0
 11 12  1  0
 12 13  1  0
 13 14  1  1
 15 13  1  4
 15 16  1  0
 16 17  1  1
 16 18  1  0
 18 19  1  0
 19 20  1  0
 20 21  1  6
 21 22  1  0
 21 23  1  0
 21 24  1  0
 20 25  1  0
 25 16  1  0
 15 26  1  0
 26 27  1  1
 26 28  1  0
 28 29  1  0
 29 13  1  0
 29 30  1  6
 29 31  1  0
 31 10  1  0
 31 32  1  4
 32 33  1  0
 34 33  1  4
 34  2  1  0
 34  8  1  0
M  END
> <Smiles>
CC1(C)C(=O)CC[C@]23C[C@]24CC[C@]2(C)C([C@]5(C)CC[C@H](C(C)(C)O)O5)[C@@H](O)C[C@@]2(C)C4CCC13

> <ID>
CHEMBL178297

> <standard_value>
27340

> <IC50_uM>
27.34

> <Activity>
No

> <pIC50>
4.56320149

> <BCI>
0

$$$$

  SciTegic03012415362D

 44 49  0  0  1  0            999 V2000
    2.1934   -5.8718    0.0000 C   0  0
    2.7084   -4.4629    0.0000 C   0  0
    4.1861   -4.2050    0.0000 C   0  0
    1.7461   -3.3113    0.0000 C   0  0
    2.2614   -1.9017    0.0000 C   0  0
    1.2990   -0.7500    0.0000 C   0  0
    1.2990    0.7500    0.0000 C   0  0
    2.5981    1.5000    0.0000 O   0  0
    0.0000    1.5000    0.0000 C   0  0
   -1.2990    0.7500    0.0000 C   0  0
   -1.2990   -0.7500    0.0000 C   0  0
    0.0000   -1.5000    0.0000 C   0  0
    0.0000   -3.0000    0.0000 O   0  0
   -2.5981   -1.5000    0.0000 C   0  0
   -2.5981   -3.0000    0.0000 O   0  0
   -3.8971   -0.7500    0.0000 C   0  0
   -5.1962   -1.5000    0.0000 C   0  0
   -6.4952   -0.7500    0.0000 C   0  0  3  0  0  0
   -6.4952    0.7500    0.0000 C   0  0
   -7.7942    1.5000    0.0000 O   0  0
   -5.1962    1.5000    0.0000 C   0  0  3  0  0  0
   -6.7069    1.5943    0.0000 C   0  0
   -7.3898    2.9308    0.0000 C   0  0
   -8.8886    3.0086    0.0000 C   0  0
   -9.5711    4.3443    0.0000 C   0  0
   -9.7045    1.7499    0.0000 C   0  0
   -6.6281    1.4607    0.0000 O   0  0
   -5.8781    2.7597    0.0000 C   0  0
   -5.1962    1.5000    0.0000 C   0  0  2  0  0  0
   -6.4952    0.7500    0.0000 C   0  0  1  0  0  0
   -7.9738    0.4924    0.0000 C   0  0
   -8.4909   -0.9165    0.0000 O   0  0
   -9.9694   -1.1741    0.0000 C   0  0
  -10.9309   -0.0228    0.0000 O   0  0
  -10.4865   -2.5830    0.0000 C   0  0
  -11.9651   -2.8406    0.0000 C   0  0
  -12.4822   -4.2496    0.0000 C   0  0
  -13.9596   -4.5092    0.0000 C   0  0
  -14.4735   -5.9184    0.0000 C   0  0
  -13.5101   -7.0681    0.0000 C   0  0
  -12.0327   -6.8085    0.0000 C   0  0
  -11.5188   -5.3993    0.0000 C   0  0
   -3.8971    0.7500    0.0000 C   0  0  3  0  0  0
   -2.5981    1.5000    0.0000 O   0  0
  1  2  1  0
  2  3  1  0
  2  4  2  0
  4  5  1  0
  5  6  1  0
  6  7  2  0
  7  8  1  0
  7  9  1  0
  9 10  2  0
 10 11  1  0
 11 12  2  0
 12  6  1  0
 12 13  1  0
 11 14  1  0
 14 15  2  0
 14 16  1  0
 16 17  2  0
 18 17  1  1
 18 19  1  0
 19 20  2  0
 19 21  1  0
 21 22  1  4
 22 23  1  0
 23 24  2  0
 24 25  1  0
 24 26  1  0
 21 27  1  0
 27 28  1  0
 29 28  1  1
 29 30  1  0
 30 18  1  0
 30 31  1  6
 31 32  1  0
 32 33  1  0
 33 34  2  0
 33 35  1  0
 35 36  2  0
 36 37  1  0
 37 38  2  0
 38 39  1  0
 39 40  2  0
 40 41  1  0
 41 42  2  0
 42 37  1  0
 29 43  1  0
 43 16  1  0
 43 21  1  0
 43 44  1  1
 44 10  1  0
M  END
> <Smiles>
CC(C)=CCc1c(O)cc2c(c1O)C(=O)C1=C[C@H]3C(=O)C4(CC=C(C)C)OC[C@H]([C@H]3COC(=O)/C=C/c3ccccc3)[C@]14O2

> <ID>
CHEMBL2335667

> <standard_value>
27400

> <IC50_uM>
27.4

> <Activity>
No

> <pIC50>
4.562249437

> <BCI>
0

$$$$

  SciTegic03012415362D

 44 48  0  0  1  0            999 V2000
    0.6137   -8.3668    0.0000 C   0  0
   -0.8500   -8.0388    0.0000 C   0  0
   -1.2977   -6.6063    0.0000 C   0  0
   -0.2816   -5.5018    0.0000 C   0  0
   -0.7292   -4.0692    0.0000 C   0  0  1  0  0  0
   -2.1929   -3.7413    0.0000 C   0  0
    0.2851   -2.9666    0.0000 C   0  0  1  0  0  0
    1.7758   -3.1329    0.0000 C   0  0
    2.3947   -1.7666    0.0000 C   0  0
    1.2990   -0.7500    0.0000 C   0  0  1  0  0  0
    1.2990    0.7500    0.0000 C   0  0
    0.0000    1.5000    0.0000 C   0  0
   -1.2990    0.7500    0.0000 C   0  0
   -2.5981    1.5000    0.0000 O   0  0
   -1.2990   -0.7500    0.0000 C   0  0
    0.0000   -1.5000    0.0000 C   0  0  2  0  0  0
   -1.2212   -2.3711    0.0000 C   0  0
    0.0000    3.0000    0.0000 C   0  0  1  0  0  0
   -1.2991    2.2500    0.0000 C   0  0
   -1.2991    3.7500    0.0000 C   0  0
   -1.2991    5.2500    0.0000 C   0  0
    0.0000    6.0000    0.0000 C   0  0
    0.0000    7.5000    0.0000 O   0  0
    1.2990    5.2500    0.0000 C   0  0  1  0  0  0
    2.5980    6.0000    0.0000 C   0  0
    1.2990    3.7500    0.0000 C   0  0  2  0  0  0
    2.5981    3.0000    0.0000 C   0  0
    2.5981    1.5000    0.0000 C   0  0  1  0  0  0
    3.8994    0.7523    0.0000 O   0  0
    5.1981    1.5046    0.0000 C   0  0
    5.1954    3.0046    0.0000 C   0  0
    6.4986    0.7572    0.0000 O   0  0
   -1.8661   -9.1434    0.0000 C   0  0  2  0  0  0
   -3.3298   -8.8154    0.0000 C   0  0
   -1.4185  -10.5759    0.0000 C   0  0
    0.0452  -10.9039    0.0000 O   0  0
   -2.4346  -11.6804    0.0000 N   0  0
   -1.9870  -13.1130    0.0000 C   0  0
   -0.5227  -13.4385    0.0000 C   0  0
   -0.0724  -14.8693    0.0000 C   0  0
   -1.0864  -15.9747    0.0000 C   0  0
   -2.5507  -15.6492    0.0000 C   0  0
   -3.0010  -14.2184    0.0000 C   0  0
   -4.4652  -13.8930    0.0000 N   0  0
  1  2  2  0
  2  3  1  0
  3  4  1  0
  4  5  1  0
  5  6  1  1
  5  7  1  0
  7  8  1  6
  8  9  1  0
 10  9  1  6
 10 11  1  0
 11 12  2  0
 12 13  1  0
 13 14  2  0
 13 15  1  0
 15 16  1  0
 16  7  1  0
 16 10  1  0
 16 17  1  6
 12 18  1  0
 18 19  1  6
 18 20  1  0
 20 21  1  0
 21 22  1  0
 22 23  2  0
 22 24  1  0
 24 25  1  1
 24 26  1  0
 26 18  1  0
 26 27  1  6
 27 28  1  0
 28 11  1  0
 28 29  1  1
 29 30  1  0
 30 31  1  0
 30 32  2  0
  2 33  1  0
 33 34  1  1
 33 35  1  0
 35 36  2  0
 35 37  1  0
 37 38  1  0
 38 39  2  0
 39 40  1  0
 40 41  2  0
 41 42  1  0
 42 43  2  0
 43 38  1  0
 43 44  1  0
M  END
> <Smiles>
C=C(CC[C@@H](C)[C@H]1CC[C@H]2C3=C(C(=O)C[C@]12C)[C@@]1(C)CCC(=O)[C@@H](C)[C@@H]1C[C@H]3OC(C)=O)[C@H](C)C(=O)Nc1ccccc1N

> <ID>
CHEMBL4875885

> <standard_value>
27400

> <IC50_uM>
27.4

> <Activity>
No

> <pIC50>
4.562249437

> <BCI>
0

$$$$

  SciTegic03012415362D

 28 31  0  0  0  0            999 V2000
    0.7077   -8.3622    0.0000 O   0  0
   -0.7600   -8.0526    0.0000 C   0  0
   -1.2256   -6.6258    0.0000 N   0  0
   -0.2234   -5.5086    0.0000 C   0  0
   -0.6890   -4.0818    0.0000 C   0  0
    0.3114   -2.9665    0.0000 C   0  0
    1.8032   -3.1233    0.0000 C   0  0
    2.4133   -1.7530    0.0000 N   0  0
    1.2990   -0.7500    0.0000 C   0  0
    1.2990    0.7500    0.0000 C   0  0
    0.0000    1.5000    0.0000 C   0  0
   -1.2990    0.7500    0.0000 C   0  0
   -1.2990   -0.7500    0.0000 C   0  0
    0.0000   -1.5000    0.0000 C   0  0
   -1.7622   -9.1698    0.0000 C   0  0
   -3.2294   -8.8578    0.0000 C   0  0
   -4.2333   -9.9723    0.0000 C   0  0
   -3.7700  -11.3990    0.0000 C   0  0
   -2.3028  -11.7111    0.0000 C   0  0
   -1.2990  -10.5965    0.0000 C   0  0
    0.1684  -10.9119    0.0000 N   0  0
    0.6299  -12.3400    0.0000 C   0  0
   -0.3779  -13.4511    0.0000 C   0  0
    0.0804  -14.8794    0.0000 C   0  0
    1.5465  -15.1966    0.0000 C   0  0
    2.5543  -14.0855    0.0000 N   0  0
    2.0959  -12.6573    0.0000 C   0  0
    3.1037  -11.5463    0.0000 Cl  0  0
  1  2  2  0
  2  3  1  0
  3  4  1  0
  4  5  1  0
  5  6  1  0
  6  7  2  0
  7  8  1  0
  8  9  1  0
  9 10  2  0
 10 11  1  0
 11 12  2  0
 12 13  1  0
 13 14  2  0
 14  6  1  0
 14  9  1  0
  2 15  1  0
 15 16  2  0
 16 17  1  0
 17 18  2  0
 18 19  1  0
 19 20  2  0
 20 15  1  0
 20 21  1  0
 21 22  1  0
 22 23  2  0
 23 24  1  0
 24 25  2  0
 25 26  1  0
 26 27  2  0
 27 22  1  0
 27 28  1  0
M  END
> <Smiles>
O=C(NCCc1c[nH]c2ccccc12)c1ccccc1Nc1cccnc1Cl

> <ID>
CHEMBL4873017

> <standard_value>
27460

> <IC50_uM>
27.46

> <Activity>
No

> <pIC50>
4.561299467

> <BCI>
0

$$$$

  SciTegic03012415362D

 38 42  0  0  0  0            999 V2000
    9.0964   -0.7340    0.0000 C   0  0
    7.7980   -1.4850    0.0000 O   0  0
    6.4972   -0.7364    0.0000 C   0  0
    5.2007   -1.4909    0.0000 C   0  0
    3.8990   -0.7455    0.0000 C   0  0
    2.6003   -1.4977    0.0000 C   0  0
    2.6021   -2.4977    0.0000 O   0  0
    1.2990   -0.7500    0.0000 C   0  0
    1.2990    0.7500    0.0000 N   0  0
    0.0000    1.5000    0.0000 C   0  0
    0.0000    3.0000    0.0000 C   0  0
   -1.2991    3.7500    0.0000 C   0  0
   -2.5981    3.0000    0.0000 C   0  0
   -2.5981    1.5000    0.0000 C   0  0
   -1.2990    0.7500    0.0000 C   0  0
   -1.2990   -0.7500    0.0000 C   0  0
   -2.5981   -1.5000    0.0000 O   0  0
    0.0000   -1.5000    0.0000 N   0  0
    0.0031   -3.0008    0.0000 C   0  0
    1.3039   -3.7494    0.0000 C   0  0
    1.4469   -5.2297    0.0000 N   0  0
    2.9152   -5.5365    0.0000 N   0  0
    3.6607   -4.2349    0.0000 C   0  0
    5.1527   -4.0728    0.0000 C   0  0
    6.1233   -5.2100    0.0000 C   0  0
    7.5981   -4.9362    0.0000 C   0  0
    8.0984   -3.5222    0.0000 C   0  0
    9.5732   -3.2484    0.0000 F   0  0
    7.1240   -2.3818    0.0000 C   0  0
    5.6491   -2.6555    0.0000 C   0  0
    2.6532   -3.1236    0.0000 O   0  0
    3.8939    0.7546    0.0000 C   0  0
    5.1903    1.5091    0.0000 C   0  0
    5.1821    3.0099    0.0000 O   0  0
    3.8794    3.7535    0.0000 C   0  0
    6.4920    0.7636    0.0000 C   0  0
    7.7907    1.5158    0.0000 O   0  0
    9.0912    0.7685    0.0000 C   0  0
  1  2  1  0
  2  3  1  0
  3  4  2  0
  4  5  1  0
  5  6  1  0
  6  7  2  0
  6  8  1  0
  8  9  2  0
  9 10  1  0
 10 11  2  0
 11 12  1  0
 12 13  2  0
 13 14  1  0
 14 15  2  0
 15 10  1  0
 15 16  1  0
 16 17  2  0
 16 18  1  0
 18  8  1  0
 18 19  1  0
 19 20  1  0
 20 21  2  0
 21 22  1  0
 22 23  2  0
 23 24  1  0
 24 25  2  0
 25 26  1  0
 26 27  2  0
 27 28  1  0
 27 29  1  0
 29 30  2  0
 30 24  1  0
 23 31  1  0
 31 20  1  0
  5 32  2  0
 32 33  1  0
 33 34  1  0
 34 35  1  0
 33 36  2  0
 36  3  1  0
 36 37  1  0
 37 38  1  0
M  END
> <Smiles>
COc1cc(C(=O)c2nc3ccccc3c(=O)n2Cc2nnc(-c3ccc(F)cc3)o2)cc(OC)c1OC

> <ID>
CHEMBL4873970

> <standard_value>
27460

> <IC50_uM>
27.46

> <Activity>
No

> <pIC50>
4.561299467

> <BCI>
0

$$$$

  SciTegic03012415362D

 28 31  0  0  0  0            999 V2000
   -0.6923   -4.0811    0.0000 C   0  0
    0.3114   -2.9665    0.0000 N   0  0
    1.8032   -3.1233    0.0000 C   0  0
    2.4133   -1.7530    0.0000 C   0  0
    3.8794   -1.4442    0.0000 C   0  0
    4.3452   -0.0183    0.0000 O   0  0
    4.8823   -2.5608    0.0000 C   0  0
    6.3506   -2.2538    0.0000 C   0  0
    7.3506   -3.3718    0.0000 C   0  0
    6.8824   -4.7969    0.0000 C   0  0
    7.6280   -6.0975    0.0000 N   0  0
    6.6207   -7.2089    0.0000 C   0  0
    6.9243   -8.6761    0.0000 N   0  0
    5.8042   -9.6751    0.0000 C   0  0
    4.3800   -9.2044    0.0000 O   0  0
    6.1084  -11.1448    0.0000 C   0  0
    4.9890  -12.1432    0.0000 F   0  0
    6.4131  -12.6135    0.0000 F   0  0
    7.5327  -11.6155    0.0000 F   0  0
    5.2523   -6.5943    0.0000 C   0  0
    5.4142   -5.1039    0.0000 N   0  0
    4.4142   -3.9859    0.0000 C   0  0
    1.2990   -0.7500    0.0000 C   0  0
    1.2990    0.7500    0.0000 C   0  0
    0.0000    1.5000    0.0000 C   0  0
   -1.2990    0.7500    0.0000 C   0  0
   -1.2990   -0.7500    0.0000 C   0  0
    0.0000   -1.5000    0.0000 C   0  0
  1  2  1  0
  2  3  1  0
  3  4  2  0
  4  5  1  0
  5  6  2  0
  5  7  1  0
  7  8  1  0
  8  9  2  0
  9 10  1  0
 10 11  2  0
 11 12  1  0
 12 13  1  0
 13 14  1  0
 14 15  2  0
 14 16  1  0
 16 17  1  0
 16 18  1  0
 16 19  1  0
 12 20  2  0
 20 21  1  0
 21 10  1  0
 21 22  1  0
 22  7  2  0
  4 23  1  0
 23 24  2  0
 24 25  1  0
 25 26  2  0
 26 27  1  0
 27 28  2  0
 28 23  1  0
 28  2  1  0
M  END
> <Smiles>
Cn1cc(C(=O)c2ccc3nc(NC(=O)C(F)(F)F)cn3c2)c2ccccc21

> <ID>
CHEMBL1088160

> <standard_value>
27800

> <IC50_uM>
27.8

> <Activity>
No

> <pIC50>
4.555955204

> <BCI>
0

$$$$

  SciTegic03012415362D

 39 44  0  0  1  0            999 V2000
    6.4983   -0.7414    0.0000 C   0  0
    5.2003   -1.4932    0.0000 C   0  0
    5.2029   -2.9932    0.0000 C   0  0
    3.8990   -0.7455    0.0000 C   0  0
    2.6003   -1.4977    0.0000 C   0  0
    1.2990   -0.7500    0.0000 C   0  0
    1.2990    0.7500    0.0000 C   0  0
    2.5981    1.5000    0.0000 O   0  0
    0.0000    1.5000    0.0000 C   0  0
   -1.2990    0.7500    0.0000 C   0  0
   -2.5981    1.5000    0.0000 O   0  0
   -1.2990   -0.7500    0.0000 C   0  0
    0.0000   -1.5000    0.0000 C   0  0
    0.0000   -3.0000    0.0000 O   0  0
   -1.2990   -3.7500    0.0000 C   0  0  1  0  0  0
   -2.5981   -3.0000    0.0000 C   0  0
   -3.6733   -1.9297    0.0000 C   0  0
   -4.6833   -3.0387    0.0000 C   0  0  1  0  0  0
   -4.2278   -4.4679    0.0000 C   0  0
   -4.8933   -5.8123    0.0000 O   0  0
   -2.8256   -3.9670    0.0000 C   0  0  3  0  0  0
   -1.4829   -4.6510    0.0000 C   0  0
   -0.2326   -3.8208    0.0000 C   0  0
    1.1119   -4.4877    0.0000 C   0  0
    2.3616   -3.6581    0.0000 C   0  0
    1.2061   -5.9848    0.0000 C   0  0
   -3.1375   -5.4343    0.0000 O   0  0
   -1.8384   -6.1843    0.0000 C   0  0
   -0.7237   -5.1806    0.0000 C   0  0  2  0  0  0
   -3.4146   -4.9826    0.0000 C   0  0  1  0  0  0
   -4.2298   -6.2341    0.0000 C   0  0
   -3.5531   -7.5738    0.0000 N   0  0
   -4.3706   -8.8314    0.0000 C   0  0
   -3.6902  -10.1683    0.0000 C   0  0
   -2.1923  -10.2474    0.0000 C   0  0
   -1.3748   -8.9898    0.0000 C   0  0
   -2.0552   -7.6530    0.0000 C   0  0
   -2.5981   -1.5000    0.0000 C   0  0
   -3.8971   -0.7500    0.0000 O   0  0
  1  2  1  0
  2  3  1  0
  2  4  2  0
  4  5  1  0
  5  6  1  0
  6  7  2  0
  7  8  1  0
  7  9  1  0
  9 10  2  0
 10 11  1  0
 10 12  1  0
 12 13  2  0
 13  6  1  0
 13 14  1  0
 15 14  1  6
 15 16  1  0
 16 17  2  0
 18 17  1  6
 18 19  1  0
 19 20  2  0
 19 21  1  0
 21 15  1  0
 21 22  1  4
 22 23  1  0
 23 24  2  0
 24 25  1  0
 24 26  1  0
 21 27  1  0
 27 28  1  0
 29 28  1  6
 29 15  1  0
 29 30  1  0
 30 18  1  0
 30 31  1  1
 31 32  1  0
 32 33  1  0
 33 34  1  0
 34 35  1  0
 35 36  1  0
 36 37  1  0
 37 32  1  0
 16 38  1  0
 38 12  1  0
 38 39  2  0
M  END
> <Smiles>
CC(C)=CCc1c(O)cc(O)c2c1O[C@@]13C(=C[C@H]4C(=O)C1(CC=C(C)C)OC[C@@H]3[C@H]4CN1CCCCC1)C2=O

> <ID>
CHEMBL2335670

> <standard_value>
27800

> <IC50_uM>
27.8

> <Activity>
No

> <pIC50>
4.555955204

> <BCI>
0

$$$$

  SciTegic03012415362D

 21 20  0  0  1  0            999 V2000
    3.9000    2.2500    0.0000 C   0  0
    3.9000    0.7500    0.0000 C   0  0
    2.6000    0.0000    0.0000 C   0  0
    1.3000    0.7500    0.0000 C   0  0
    0.0007    0.0004    0.0000 O   0  0
    5.2000    0.0000    0.0000 C   0  0
    6.5000    0.7500    0.0000 C   0  0
    7.7999    0.0000    0.0000 C   0  0
    9.0999    0.7500    0.0000 C   0  0  2  0  0  0
    9.0999    2.2500    0.0000 C   0  0
   10.3999    0.0000    0.0000 C   0  0
   11.6999    0.7500    0.0000 C   0  0
   12.9999    0.0000    0.0000 C   0  0
   14.2999    0.7500    0.0000 C   0  0  2  0  0  0
   14.2999    2.2500    0.0000 C   0  0
   15.5999    0.0000    0.0000 C   0  0
   16.8999    0.7500    0.0000 C   0  0
   18.1999    0.0000    0.0000 C   0  0
   19.4998    0.7500    0.0000 C   0  0
   20.7991    0.0004    0.0000 C   0  0
   19.4998    2.2500    0.0000 C   0  0
  1  2  1  0
  2  3  2  0
  3  4  1  0
  4  5  1  0
  2  6  1  0
  6  7  1  0
  7  8  1  0
  8  9  1  0
  9 10  1  6
  9 11  1  0
 11 12  1  0
 12 13  1  0
 13 14  1  0
 14 15  1  6
 14 16  1  0
 16 17  1  0
 17 18  1  0
 18 19  1  0
 19 20  1  0
 19 21  1  0
M  END
> <Smiles>
C/C(=C\CO)CCC[C@H](C)CCC[C@H](C)CCCC(C)C

> <ID>
CHEMBL1644111

> <standard_value>
27800

> <IC50_uM>
27.8

> <Activity>
No

> <pIC50>
4.555955204

> <BCI>
0

$$$$

  SciTegic03012415362D

 67 74  0  0  0  0            999 V2000
    3.8983   -0.7459    0.0000 C   0  0
    2.6003   -1.4977    0.0000 O   0  0
    1.2990   -0.7500    0.0000 C   0  0
    1.2990    0.7500    0.0000 C   0  0
    0.0000    1.5000    0.0000 C   0  0
    0.0000    3.0000    0.0000 N   0  0
   -1.2991    3.7500    0.0000 C   0  0
   -1.2991    5.2507    0.0000 N   0  0
   -0.0012    6.0029    0.0000 C   0  0
   -0.0036    7.5029    0.0000 C   0  0
   -1.3039    8.2509    0.0000 N   0  0
   -1.3093    9.7517    0.0000 C   0  0
   -0.0128   10.5060    0.0000 O   0  0
   -2.6114   10.4982    0.0000 C   0  0
   -2.6190   11.9982    0.0000 C   0  0
   -3.9218   12.7416    0.0000 C   0  0
   -5.2171   11.9850    0.0000 C   0  0
   -6.5221   12.7262    0.0000 N   0  0
   -7.8170   11.9674    0.0000 C   0  0
   -7.8068   10.4674    0.0000 O   0  0
   -9.1220   12.7085    0.0000 C   0  0
  -10.4169   11.9497    0.0000 C   0  0
  -11.7220   12.6909    0.0000 C   0  0
  -13.0168   11.9321    0.0000 C   0  0
  -13.0066   10.4321    0.0000 O   0  0
  -14.3219   12.6732    0.0000 N   0  0
  -15.6168   11.9144    0.0000 C   0  0
  -16.9222   12.6532    0.0000 C   0  0
  -18.2148   11.8922    0.0000 C   0  0
  -18.2020   10.3923    0.0000 C   0  0
  -19.4938    9.6281    0.0000 C   0  0
  -20.8005   10.3648    0.0000 O   0  0
  -19.4789    8.1274    0.0000 N   0  0
  -20.7688    7.3618    0.0000 C   0  0
  -20.7509    5.8619    0.0000 C   0  0
  -19.4429    5.1275    0.0000 N   0  0
  -19.4250    3.6269    0.0000 C   0  0
  -20.7137    2.8592    0.0000 N   0  0
  -20.6934    1.3594    0.0000 C   0  0
  -21.9821    0.5918    0.0000 N   0  0
  -19.3843    0.6270    0.0000 C   0  0
  -19.3640   -0.8728    0.0000 C   0  0
  -18.0549   -1.6051    0.0000 C   0  0
  -18.0376   -3.1059    0.0000 O   0  0
  -19.3274   -3.8716    0.0000 C   0  0
  -16.7661   -0.8376    0.0000 C   0  0
  -15.4548   -1.5676    0.0000 O   0  0
  -14.1672   -0.7982    0.0000 C   0  0
  -16.7865    0.6623    0.0000 C   0  0
  -18.0956    1.3946    0.0000 C   0  0
  -18.1159    2.8944    0.0000 N   0  0
  -18.1530    5.8930    0.0000 C   0  0
  -18.1709    7.3929    0.0000 C   0  0
  -16.8967    9.6533    0.0000 C   0  0
  -15.6041   10.4144    0.0000 C   0  0
   -5.2095   10.4851    0.0000 C   0  0
   -3.9067    9.7416    0.0000 C   0  0
   -2.6017    7.4988    0.0000 C   0  0
   -2.5993    5.9988    0.0000 C   0  0
   -2.5981    3.0000    0.0000 N   0  0
   -2.5981    1.5000    0.0000 C   0  0
   -3.8971    0.7500    0.0000 N   0  0
   -1.2990    0.7500    0.0000 C   0  0
   -1.2990   -0.7500    0.0000 C   0  0
    0.0000   -1.5000    0.0000 C   0  0
   -0.0031   -3.0008    0.0000 O   0  0
   -1.3032   -3.7490    0.0000 C   0  0
  1  2  1  0
  2  3  1  0
  3  4  2  0
  4  5  1  0
  5  6  2  0
  6  7  1  0
  7  8  1  0
  8  9  1  0
  9 10  1  0
 10 11  1  0
 11 12  1  0
 12 13  2  0
 12 14  1  0
 14 15  2  0
 15 16  1  0
 16 17  2  0
 17 18  1  0
 18 19  1  0
 19 20  2  0
 19 21  1  0
 21 22  1  0
 22 23  1  0
 23 24  1  0
 24 25  2  0
 24 26  1  0
 26 27  1  0
 27 28  2  0
 28 29  1  0
 29 30  2  0
 30 31  1  0
 31 32  2  0
 31 33  1  0
 33 34  1  0
 34 35  1  0
 35 36  1  0
 36 37  1  0
 37 38  2  0
 38 39  1  0
 39 40  1  0
 39 41  2  0
 41 42  1  0
 42 43  2  0
 43 44  1  0
 44 45  1  0
 43 46  1  0
 46 47  1  0
 47 48  1  0
 46 49  2  0
 49 50  1  0
 50 41  1  0
 50 51  2  0
 51 37  1  0
 36 52  1  0
 52 53  1  0
 53 33  1  0
 30 54  1  0
 54 55  2  0
 55 27  1  0
 17 56  1  0
 56 57  2  0
 57 14  1  0
 11 58  1  0
 58 59  1  0
 59  8  1  0
  7 60  2  0
 60 61  1  0
 61 62  1  0
 61 63  2  0
 63  5  1  0
 63 64  1  0
 64 65  2  0
 65  3  1  0
 65 66  1  0
 66 67  1  0
M  END
> <Smiles>
COc1cc2nc(N3CCN(C(=O)c4ccc(NC(=O)CCCC(=O)Nc5ccc(C(=O)N6CCN(c7nc(N)c8cc(OC)c(OC)cc8n7)CC6)cc5)cc4)CC3)nc(N)c2cc1OC

> <ID>
CHEMBL4788996

> <standard_value>
27990

> <IC50_uM>
27.99

> <Activity>
No

> <pIC50>
4.552997102

> <BCI>
0

$$$$

  SciTegic03012415362D

 26 29  0  0  0  0            999 V2000
    4.8817   -2.5602    0.0000 C   0  0
    3.8794   -1.4442    0.0000 C   0  0
    2.4133   -1.7530    0.0000 N   0  0
    1.2990   -0.7500    0.0000 C   0  0
    1.2990    0.7500    0.0000 C   0  0
    0.0000    1.5000    0.0000 C   0  0
   -0.0031    3.0008    0.0000 O   0  0
   -1.3039    3.7494    0.0000 C   0  0
   -1.3070    5.2502    0.0000 C   0  0
   -2.6078    5.9988    0.0000 C   0  0
   -2.6109    7.4996    0.0000 C   0  0
   -3.9100    8.2496    0.0000 C   0  0
   -3.9100    9.7496    0.0000 C   0  0
   -2.6110   10.4997    0.0000 C   0  0
   -1.3119    9.7497    0.0000 C   0  0
   -1.3119    8.2497    0.0000 C   0  0
   -1.2990    0.7500    0.0000 C   0  0
   -1.2990   -0.7500    0.0000 C   0  0
    0.0000   -1.5000    0.0000 C   0  0
    0.3114   -2.9665    0.0000 C   0  0
   -0.5701   -4.1788    0.0000 C   0  0
    0.0400   -5.5491    0.0000 C   0  0
    1.5318   -5.7059    0.0000 N   0  0
    2.4135   -4.4923    0.0000 C   0  0
    3.9053   -4.6488    0.0000 C   0  0
    1.8032   -3.1233    0.0000 C   0  0
  1  2  1  0
  2  3  1  0
  3  4  1  0
  4  5  2  0
  5  6  1  0
  6  7  1  0
  7  8  1  0
  8  9  1  0
  9 10  1  0
 10 11  1  0
 11 12  2  0
 12 13  1  0
 13 14  2  0
 14 15  1  0
 15 16  2  0
 16 11  1  0
  6 17  2  0
 17 18  1  0
 18 19  2  0
 19  4  1  0
 19 20  1  0
 20 21  2  0
 21 22  1  0
 22 23  2  0
 23 24  1  0
 24 25  1  0
 24 26  2  0
 26 20  1  0
 26  3  1  0
M  END
> <Smiles>
CCn1c2cc(OCCCc3ccccc3)ccc2c2ccnc(C)c21

> <ID>
CHEMBL2314909

> <standard_value>
28000

> <IC50_uM>
28

> <Activity>
No

> <pIC50>
4.552841969

> <BCI>
0

$$$$

  SciTegic03012415362D

 22 22  0  0  1  0            999 V2000
    6.4833   -9.7648    0.0000 C   0  0
    6.4855   -8.2648    0.0000 C   0  0
    5.1873   -7.5117    0.0000 C   0  0  2  0  0  0
    3.8869   -8.2595    0.0000 C   0  0
    5.1894   -6.0109    0.0000 C   0  0
    6.4897   -5.2632    0.0000 O   0  0
    3.8912   -5.2578    0.0000 O   0  0
    3.8933   -3.7570    0.0000 C   0  0
    2.5951   -3.0039    0.0000 C   0  0
    2.5973   -1.5031    0.0000 C   0  0
    1.2990   -0.7500    0.0000 C   0  0
    1.2990    0.7500    0.0000 C   0  0
    0.0000    1.5000    0.0000 C   0  0
   -1.2990    0.7500    0.0000 C   0  0
   -2.5973    1.5031    0.0000 O   0  0
   -2.5951    3.0039    0.0000 C   0  0
   -1.2948    3.7516    0.0000 C   0  0
   -3.8926    3.7566    0.0000 O   0  0
   -1.2990   -0.7500    0.0000 C   0  0
   -2.5972   -1.5031    0.0000 O   0  0
   -2.5951   -3.0031    0.0000 C   0  0
    0.0000   -1.5000    0.0000 C   0  0
  1  2  1  0
  2  3  1  0
  3  4  1  6
  3  5  1  0
  5  6  2  0
  5  7  1  0
  7  8  1  0
  8  9  1  0
  9 10  2  0
 10 11  1  0
 11 12  2  0
 12 13  1  0
 13 14  2  0
 14 15  1  0
 15 16  1  0
 16 17  1  0
 16 18  2  0
 14 19  1  0
 19 20  1  0
 20 21  1  0
 19 22  2  0
 22 11  1  0
M  END
> <Smiles>
CC[C@H](C)C(=O)OC/C=C/c1ccc(OC(C)=O)c(OC)c1

> <ID>
CHEMBL3588943

> <standard_value>
28100

> <IC50_uM>
28.1

> <Activity>
No

> <pIC50>
4.55129368

> <BCI>
0

$$$$

  SciTegic03012415362D

 49 51  0  0  0  0            999 V2000
   18.1995   -1.4701    0.0000 C   0  0
   16.8989   -0.7228    0.0000 C   0  0
   16.8963    0.7772    0.0000 C   0  0
   15.6002   -1.4751    0.0000 C   0  0
   14.2989   -0.7273    0.0000 C   0  0
   13.0002   -1.4796    0.0000 C   0  0
   11.6990   -0.7319    0.0000 C   0  0
   11.6963    0.7681    0.0000 C   0  0
   10.4003   -1.4841    0.0000 C   0  0
    9.0990   -0.7364    0.0000 C   0  0
    7.8003   -1.4887    0.0000 C   0  0
    6.4990   -0.7409    0.0000 C   0  0
    6.4964    0.7591    0.0000 C   0  0
    5.2003   -1.4932    0.0000 C   0  0
    3.8990   -0.7455    0.0000 C   0  0
    2.6003   -1.4977    0.0000 S   0  0
    1.2990   -0.7500    0.0000 C   0  0
    1.2990    0.7500    0.0000 C   0  0
    0.0000    1.5000    0.0000 C   0  0
   -1.2990    0.7500    0.0000 C   0  0
   -1.2990   -0.7500    0.0000 C   0  0
    0.0000   -1.5000    0.0000 C   0  0
   -0.0031   -3.0008    0.0000 C   0  0
    1.2947   -3.7531    0.0000 O   0  0
   -1.3039   -3.7494    0.0000 N   0  0
   -1.3070   -5.2502    0.0000 C   0  0
   -2.6078   -5.9988    0.0000 C   0  0
   -3.9055   -5.2465    0.0000 O   0  0
   -2.6109   -7.4996    0.0000 O   0  0
   -3.9117   -8.2482    0.0000 C   0  0
   -3.9148   -9.7490    0.0000 C   0  0
   -5.2156  -10.4976    0.0000 C   0  0
   -5.2187  -11.9984    0.0000 C   0  0
   -6.5195  -12.7469    0.0000 O   0  0
   -6.5226  -14.2478    0.0000 C   0  0
   -5.3090  -15.1076    0.0000 N   0  0
   -5.7726  -16.5342    0.0000 O   0  0
   -7.2726  -16.5342    0.0000 N   0  3
   -8.1543  -17.7477    0.0000 O   0  5
   -7.7361  -15.1076    0.0000 C   0  0
   -9.1574  -14.6337    0.0000 S   0  0
   -9.4574  -13.1640    0.0000 O   0  0
   -8.0348  -13.6388    0.0000 O   0  0
  -10.2810  -15.6286    0.0000 C   0  0
   -9.9814  -17.0984    0.0000 C   0  0
  -11.1045  -18.0927    0.0000 C   0  0
  -12.5272  -17.6173    0.0000 C   0  0
  -12.8268  -16.1475    0.0000 C   0  0
  -11.7037  -15.1532    0.0000 C   0  0
  1  2  1  0
  2  3  1  0
  2  4  2  0
  4  5  1  0
  5  6  1  0
  6  7  1  0
  7  8  1  0
  7  9  2  0
  9 10  1  0
 10 11  1  0
 11 12  1  0
 12 13  1  0
 12 14  2  0
 14 15  1  0
 15 16  1  0
 16 17  1  0
 17 18  2  0
 18 19  1  0
 19 20  2  0
 20 21  1  0
 21 22  2  0
 22 17  1  0
 22 23  1  0
 23 24  2  0
 23 25  1  0
 25 26  1  0
 26 27  1  0
 27 28  2  0
 27 29  1  0
 29 30  1  0
 30 31  1  0
 31 32  1  0
 32 33  1  0
 33 34  1  0
 34 35  1  0
 35 36  2  0
 36 37  1  0
 37 38  1  0
 38 39  1  0
 38 40  2  0
 40 35  1  0
 40 41  1  0
 41 42  2  0
 41 43  2  0
 41 44  1  0
 44 45  2  0
 45 46  1  0
 46 47  2  0
 47 48  1  0
 48 49  2  0
 49 44  1  0
M  CHG  2  38   1  39  -1
M  END
> <Smiles>
CC(C)=CCC/C(C)=C/CC/C(C)=C/CSc1ccccc1C(=O)NCC(=O)OCCCCOc1no[n+]([O-])c1S(=O)(=O)c1ccccc1

> <ID>
CHEMBL1097303

> <standard_value>
28220

> <IC50_uM>
28.22

> <Activity>
No

> <pIC50>
4.549442991

> <BCI>
0

$$$$

  SciTegic03012415362D

 29 32  0  0  0  0            999 V2000
    2.6719    0.7452    0.0000 C   0  0
    1.6852   -0.3846    0.0000 C   0  0
    2.0841   -1.8306    0.0000 C   0  0
    1.3514    1.0778    0.0000 C   0  0
    0.0000    1.7286    0.0000 N   0  0
   -1.3515    1.0777    0.0000 C   0  0
   -2.5242    2.0130    0.0000 O   0  0
   -1.6852   -0.3847    0.0000 C   0  0
   -3.0899   -0.9120    0.0000 C   0  0
   -3.0226   -2.4105    0.0000 C   0  0
   -4.1959   -3.3462    0.0000 C   0  0
   -5.6245   -2.9054    0.0000 C   0  0
   -6.7236   -3.9262    0.0000 C   0  0
   -6.3890   -5.3885    0.0000 C   0  0
   -7.4866   -6.4121    0.0000 N   0  3
   -7.1499   -7.8739    0.0000 O   0  0
   -8.9209   -5.9732    0.0000 O   0  5
   -4.9554   -5.8298    0.0000 C   0  0
   -3.8564   -4.8090    0.0000 C   0  0
   -1.5767   -2.8095    0.0000 N   0  0
   -1.0494   -4.2146    0.0000 C   0  0
   -1.9101   -5.4370    0.0000 C   0  0
   -1.2789   -6.7977    0.0000 C   0  0
    0.2151   -6.9315    0.0000 C   0  0
    0.8463   -8.2922    0.0000 Cl  0  0
    1.0779   -5.7045    0.0000 C   0  0
    0.4468   -4.3438    0.0000 C   0  0
   -0.7500   -1.5574    0.0000 C   0  0
    0.7500   -1.5574    0.0000 C   0  0
  1  2  1  0
  2  3  1  0
  2  4  1  0
  4  5  1  0
  5  6  1  0
  6  7  2  0
  6  8  1  0
  8  9  1  0
  9 10  2  0
 10 11  1  0
 11 12  2  0
 12 13  1  0
 13 14  2  0
 14 15  1  0
 15 16  2  0
 15 17  1  0
 14 18  1  0
 18 19  2  0
 19 11  1  0
 10 20  1  0
 20 21  1  0
 21 22  2  0
 22 23  1  0
 23 24  2  0
 24 25  1  0
 24 26  1  0
 26 27  2  0
 27 21  1  0
 20 28  1  0
 28  8  2  0
 28 29  1  0
 29  2  1  0
M  CHG  2  15   1  17  -1
M  END
> <Smiles>
CC1(C)CNC(=O)c2cc(-c3ccc([N+](=O)[O-])cc3)n(-c3ccc(Cl)cc3)c2C1

> <ID>
CHEMBL456412

> <standard_value>
28820

> <IC50_uM>
28.82

> <Activity>
No

> <pIC50>
4.540306024

> <BCI>
0

$$$$

  SciTegic03012415362D

 24 26  0  0  1  0            999 V2000
    3.8983   -0.7459    0.0000 C   0  0
    2.6003   -1.4977    0.0000 O   0  0
    1.2990   -0.7500    0.0000 C   0  0
    1.2990    0.7500    0.0000 C   0  0
    2.5972    1.5031    0.0000 C   0  0
    2.5951    3.0031    0.0000 C   0  0
    3.8976    0.7554    0.0000 C   0  0
    0.0000    1.5000    0.0000 C   0  0
   -1.2990    0.7500    0.0000 C   0  0
   -2.5981    1.5000    0.0000 O   0  0
   -1.2990   -0.7500    0.0000 C   0  0
    0.0000   -1.5000    0.0000 C   0  0
    0.0000   -3.0000    0.0000 C   0  0
   -1.2990   -3.7500    0.0000 C   0  0
   -2.5981   -3.0000    0.0000 C   0  0  1  0  0  0
   -3.8971   -3.7500    0.0000 C   0  0
   -2.5807   -4.4691    0.0000 C   0  0
   -5.2134   -4.4693    0.0000 C   0  0
   -5.1961   -3.0000    0.0000 C   0  0
   -6.4952   -3.7500    0.0000 O   0  0
   -5.1962   -1.5000    0.0000 C   0  0
   -3.8971   -0.7500    0.0000 C   0  0
   -2.5981   -1.5000    0.0000 C   0  0  2  0  0  0
   -2.5981    0.0000    0.0000 C   0  0
  1  2  1  0
  2  3  1  0
  3  4  2  0
  4  5  1  0
  5  6  1  0
  5  7  1  0
  4  8  1  0
  8  9  2  0
  9 10  1  0
  9 11  1  0
 11 12  2  0
 12  3  1  0
 12 13  1  0
 13 14  1  0
 15 14  1  1
 15 16  1  0
 16 17  1  0
 16 18  1  0
 16 19  1  0
 19 20  2  0
 19 21  1  0
 21 22  1  0
 22 23  1  0
 23 11  1  0
 23 15  1  0
 23 24  1  1
M  END
> <Smiles>
COc1c(C(C)C)cc(O)c2c1CC[C@H]1C(C)(C)C(=O)CC[C@]21C

> <ID>
CHEMBL3798093

> <standard_value>
29260

> <IC50_uM>
29.26

> <Activity>
No

> <pIC50>
4.533725678

> <BCI>
0

$$$$

  SciTegic03012415362D

 28 31  0  0  0  0            999 V2000
    7.3532   -3.3675    0.0000 C   0  0
    6.3509   -2.2515    0.0000 C   0  0
    4.8823   -2.5608    0.0000 C   0  0
    3.8794   -1.4442    0.0000 C   0  0
    2.4133   -1.7530    0.0000 N   0  0
    1.2990   -0.7500    0.0000 C   0  0
    1.2990    0.7500    0.0000 C   0  0
    0.0000    1.5000    0.0000 C   0  0
   -0.0031    3.0008    0.0000 O   0  0
   -1.3039    3.7494    0.0000 C   0  0
   -1.3070    5.2502    0.0000 C   0  0
   -2.6078    5.9988    0.0000 C   0  0
   -2.6109    7.4996    0.0000 C   0  0
   -3.9100    8.2496    0.0000 C   0  0
   -3.9100    9.7496    0.0000 C   0  0
   -2.6110   10.4997    0.0000 C   0  0
   -1.3119    9.7497    0.0000 C   0  0
   -1.3119    8.2497    0.0000 C   0  0
   -1.2990    0.7500    0.0000 C   0  0
   -1.2990   -0.7500    0.0000 C   0  0
    0.0000   -1.5000    0.0000 C   0  0
    0.3114   -2.9665    0.0000 C   0  0
   -0.5701   -4.1788    0.0000 C   0  0
    0.0400   -5.5491    0.0000 C   0  0
    1.5318   -5.7059    0.0000 N   0  0
    2.4135   -4.4923    0.0000 C   0  0
    3.9053   -4.6488    0.0000 C   0  0
    1.8032   -3.1233    0.0000 C   0  0
  1  2  1  0
  2  3  1  0
  3  4  1  0
  4  5  1  0
  5  6  1  0
  6  7  2  0
  7  8  1  0
  8  9  1  0
  9 10  1  0
 10 11  1  0
 11 12  1  0
 12 13  1  0
 13 14  2  0
 14 15  1  0
 15 16  2  0
 16 17  1  0
 17 18  2  0
 18 13  1  0
  8 19  2  0
 19 20  1  0
 20 21  2  0
 21  6  1  0
 21 22  1  0
 22 23  2  0
 23 24  1  0
 24 25  2  0
 25 26  1  0
 26 27  1  0
 26 28  2  0
 28 22  1  0
 28  5  1  0
M  END
> <Smiles>
CCCCn1c2cc(OCCCc3ccccc3)ccc2c2ccnc(C)c21

> <ID>
CHEMBL2314672

> <standard_value>
29900

> <IC50_uM>
29.9

> <Activity>
No

> <pIC50>
4.524328812

> <BCI>
0

$$$$

  SciTegic03012415362D

 11 10  0  0  0  0            999 V2000
    0.0007    0.0004    0.0000 C   0  0
    1.3000    0.7500    0.0000 N   0  0
    2.6000    0.0000    0.0000 C   0  0
    2.6000   -1.5000    0.0000 O   0  0
    3.9000    0.7500    0.0000 N   0  0
    3.9000    2.2500    0.0000 C   0  0
    5.2000    0.0000    0.0000 N   0  0
    6.5000    0.7500    0.0000 N   0  0
    6.5014    2.2508    0.0000 C   0  0
    7.8014    3.0008    0.0000 C   0  0
    7.8028    4.5008    0.0000 Cl  0  0
  1  2  1  0
  2  3  1  0
  3  4  2  0
  3  5  1  0
  5  6  1  0
  5  7  1  0
  7  8  2  0
  8  9  1  0
  9 10  1  0
 10 11  1  0
M  END
> <Smiles>
CNC(=O)N(C)/N=N\CCCl

> <ID>
CHEMBL87769

> <standard_value>
30000

> <IC50_uM>
30

> <Activity>
No

> <pIC50>
4.522878745

> <BCI>
0

$$$$

  SciTegic03012415362D

 25 29  0  0  1  0            999 V2000
   -0.2478   -8.1014    0.0000 C   0  0
   -0.8612   -6.7326    0.0000 C   0  0
   -2.3534   -6.5798    0.0000 C   0  0
    0.0174   -5.5157    0.0000 C   0  0
   -0.5963   -4.1461    0.0000 C   0  0
    0.2851   -2.9666    0.0000 C   0  0  3  0  0  0
    1.7758   -3.1329    0.0000 O   0  0
    2.3947   -1.7666    0.0000 C   0  0
    1.2990   -0.7500    0.0000 C   0  0  2  0  0  0
    1.2990    0.7500    0.0000 C   0  0
    0.0000    1.5000    0.0000 C   0  0  1  0  0  0
   -1.2990    0.7500    0.0000 C   0  0
   -1.2990   -0.7500    0.0000 C   0  0
   -2.5969   -1.5137    0.0000 C   0  0
   -3.8988   -0.7687    0.0000 O   0  0
   -2.5976   -3.0137    0.0000 C   0  0
   -3.8970   -3.7631    0.0000 C   0  0
   -3.8977   -5.2631    0.0000 C   0  0
   -2.5990   -6.0137    0.0000 C   0  0
   -1.2996   -5.2643    0.0000 C   0  0
   -1.2989   -3.7643    0.0000 C   0  0
    0.0005   -3.0149    0.0000 O   0  0
    0.0000   -1.5000    0.0000 C   0  0  2  0  0  0
   -1.2151   -0.4213    0.0000 C   0  0
   -2.7149   -0.3978    0.0000 O   0  0
  1  2  1  0
  2  3  1  0
  2  4  2  0
  4  5  1  0
  6  5  1  4
  6  7  1  0
  7  8  1  0
  9  8  1  1
  9 10  1  0
 11 10  1  6
 11 12  1  0
 12 13  2  0
 13 14  1  0
 14 15  2  0
 14 16  1  0
 16 17  2  0
 17 18  1  0
 18 19  2  0
 19 20  1  0
 20 21  2  0
 21 16  1  0
 21 22  1  0
 23 22  1  6
 23 13  1  0
 23  9  1  0
 23  6  1  0
 11 24  1  0
 24  6  1  0
 24 25  2  0
M  END
> <Smiles>
CC(C)=CCC12OC[C@@H]3C[C@@H](C=C4C(=O)c5ccccc5O[C@]431)C2=O

> <ID>
CHEMBL2336594

> <standard_value>
30000

> <IC50_uM>
30

> <Activity>
No

> <pIC50>
4.522878745

> <BCI>
0

$$$$

  SciTegic03012415362D

 26 29  0  0  0  0            999 V2000
    7.7993   -1.5112    0.0000 C   0  0
    7.7945   -3.0112    0.0000 C   0  0
    9.0912   -3.7653    0.0000 C   0  0
    9.0864   -5.2653    0.0000 C   0  0
    7.7850   -6.0111    0.0000 C   0  0
    6.4884   -5.2570    0.0000 C   0  0
    6.4930   -3.7570    0.0000 C   0  0
    5.1945   -3.0045    0.0000 C   0  0
    5.1969   -1.5045    0.0000 C   0  0
    3.8991   -0.7525    0.0000 C   0  0
    2.5987   -1.5004    0.0000 N   0  0
    1.2990   -0.7500    0.0000 C   0  0
    1.2990    0.7500    0.0000 C   0  0
    0.0000    1.5000    0.0000 C   0  0
    0.0000    3.0000    0.0000 O   0  0
   -1.2990    0.7500    0.0000 C   0  0
   -2.5981    1.5000    0.0000 C   0  0
   -3.8971    0.7500    0.0000 C   0  0
   -3.8971   -0.7500    0.0000 C   0  0
   -2.5981   -1.5000    0.0000 C   0  0
   -2.5981   -3.0000    0.0000 O   0  0
   -1.2990   -0.7500    0.0000 C   0  0
    0.0000   -1.5000    0.0000 C   0  0
    0.0000   -3.0000    0.0000 O   0  0
    2.5965   -3.0004    0.0000 C   0  0
    3.8943   -3.7525    0.0000 C   0  0
  1  2  1  0
  2  3  2  0
  3  4  1  0
  4  5  2  0
  5  6  1  0
  6  7  2  0
  7  2  1  0
  7  8  1  0
  8  9  1  0
  9 10  1  0
 10 11  1  0
 11 12  1  0
 12 13  2  0
 13 14  1  0
 14 15  2  0
 14 16  1  0
 16 17  2  0
 17 18  1  0
 18 19  2  0
 19 20  1  0
 20 21  1  0
 20 22  2  0
 22 16  1  0
 22 23  1  0
 23 12  1  0
 23 24  2  0
 11 25  1  0
 25 26  1  0
 26  8  1  0
M  END
> <Smiles>
Cc1ccccc1C1CCN(C2=CC(=O)c3cccc(O)c3C2=O)CC1

> <ID>
CHEMBL1784163

> <standard_value>
30400

> <IC50_uM>
30.4

> <Activity>
No

> <pIC50>
4.517126416

> <BCI>
0

$$$$

  SciTegic03012415362D

 67 74  0  0  0  0            999 V2000
    3.8983   -0.7459    0.0000 C   0  0
    2.6003   -1.4977    0.0000 O   0  0
    1.2990   -0.7500    0.0000 C   0  0
    1.2990    0.7500    0.0000 C   0  0
    0.0000    1.5000    0.0000 C   0  0
    0.0000    3.0000    0.0000 N   0  0
   -1.2991    3.7500    0.0000 C   0  0
   -1.2991    5.2507    0.0000 N   0  0
   -0.0012    6.0029    0.0000 C   0  0
   -0.0036    7.5029    0.0000 C   0  0
   -1.3039    8.2509    0.0000 N   0  0
   -1.3093    9.7517    0.0000 C   0  0
   -0.0128   10.5060    0.0000 O   0  0
   -2.6114   10.4982    0.0000 C   0  0
   -2.6190   11.9982    0.0000 C   0  0
   -3.9218   12.7416    0.0000 C   0  0
   -5.2171   11.9850    0.0000 C   0  0
   -6.5221   12.7262    0.0000 N   0  0
   -7.8170   11.9674    0.0000 C   0  0
   -7.8068   10.4674    0.0000 O   0  0
   -9.1220   12.7085    0.0000 C   0  0
  -10.4169   11.9497    0.0000 O   0  0
  -11.7220   12.6909    0.0000 C   0  0
  -13.0168   11.9321    0.0000 C   0  0
  -13.0066   10.4321    0.0000 O   0  0
  -14.3219   12.6732    0.0000 N   0  0
  -15.6168   11.9144    0.0000 C   0  0
  -16.9222   12.6532    0.0000 C   0  0
  -18.2148   11.8922    0.0000 C   0  0
  -18.2020   10.3923    0.0000 C   0  0
  -19.4938    9.6281    0.0000 C   0  0
  -20.8005   10.3648    0.0000 O   0  0
  -19.4789    8.1274    0.0000 N   0  0
  -20.7688    7.3618    0.0000 C   0  0
  -20.7509    5.8619    0.0000 C   0  0
  -19.4429    5.1275    0.0000 N   0  0
  -19.4250    3.6269    0.0000 C   0  0
  -20.7137    2.8592    0.0000 N   0  0
  -20.6934    1.3594    0.0000 C   0  0
  -21.9821    0.5918    0.0000 N   0  0
  -19.3843    0.6270    0.0000 C   0  0
  -19.3640   -0.8728    0.0000 C   0  0
  -18.0549   -1.6051    0.0000 C   0  0
  -18.0376   -3.1059    0.0000 O   0  0
  -19.3274   -3.8716    0.0000 C   0  0
  -16.7661   -0.8376    0.0000 C   0  0
  -15.4548   -1.5676    0.0000 O   0  0
  -14.1672   -0.7982    0.0000 C   0  0
  -16.7865    0.6623    0.0000 C   0  0
  -18.0956    1.3946    0.0000 C   0  0
  -18.1159    2.8944    0.0000 N   0  0
  -18.1530    5.8930    0.0000 C   0  0
  -18.1709    7.3929    0.0000 C   0  0
  -16.8967    9.6533    0.0000 C   0  0
  -15.6041   10.4144    0.0000 C   0  0
   -5.2095   10.4851    0.0000 C   0  0
   -3.9067    9.7416    0.0000 C   0  0
   -2.6017    7.4988    0.0000 C   0  0
   -2.5993    5.9988    0.0000 C   0  0
   -2.5981    3.0000    0.0000 N   0  0
   -2.5981    1.5000    0.0000 C   0  0
   -3.8971    0.7500    0.0000 N   0  0
   -1.2990    0.7500    0.0000 C   0  0
   -1.2990   -0.7500    0.0000 C   0  0
    0.0000   -1.5000    0.0000 C   0  0
   -0.0031   -3.0008    0.0000 O   0  0
   -1.3032   -3.7490    0.0000 C   0  0
  1  2  1  0
  2  3  1  0
  3  4  2  0
  4  5  1  0
  5  6  2  0
  6  7  1  0
  7  8  1  0
  8  9  1  0
  9 10  1  0
 10 11  1  0
 11 12  1  0
 12 13  2  0
 12 14  1  0
 14 15  2  0
 15 16  1  0
 16 17  2  0
 17 18  1  0
 18 19  1  0
 19 20  2  0
 19 21  1  0
 21 22  1  0
 22 23  1  0
 23 24  1  0
 24 25  2  0
 24 26  1  0
 26 27  1  0
 27 28  2  0
 28 29  1  0
 29 30  2  0
 30 31  1  0
 31 32  2  0
 31 33  1  0
 33 34  1  0
 34 35  1  0
 35 36  1  0
 36 37  1  0
 37 38  2  0
 38 39  1  0
 39 40  1  0
 39 41  2  0
 41 42  1  0
 42 43  2  0
 43 44  1  0
 44 45  1  0
 43 46  1  0
 46 47  1  0
 47 48  1  0
 46 49  2  0
 49 50  1  0
 50 41  1  0
 50 51  2  0
 51 37  1  0
 36 52  1  0
 52 53  1  0
 53 33  1  0
 30 54  1  0
 54 55  2  0
 55 27  1  0
 17 56  1  0
 56 57  2  0
 57 14  1  0
 11 58  1  0
 58 59  1  0
 59  8  1  0
  7 60  2  0
 60 61  1  0
 61 62  1  0
 61 63  2  0
 63  5  1  0
 63 64  1  0
 64 65  2  0
 65  3  1  0
 65 66  1  0
 66 67  1  0
M  END
> <Smiles>
COc1cc2nc(N3CCN(C(=O)c4ccc(NC(=O)COCC(=O)Nc5ccc(C(=O)N6CCN(c7nc(N)c8cc(OC)c(OC)cc8n7)CC6)cc5)cc4)CC3)nc(N)c2cc1OC

> <ID>
CHEMBL4778844

> <standard_value>
30440

> <IC50_uM>
30.44

> <Activity>
No

> <pIC50>
4.516555352

> <BCI>
0

$$$$

  SciTegic03012415362D

 28 31  0  0  0  0            999 V2000
    3.1037  -11.5463    0.0000 C   0  0
    2.0959  -12.6573    0.0000 C   0  0
    2.5543  -14.0856    0.0000 C   0  0
    1.5465  -15.1966    0.0000 C   0  0
    0.0804  -14.8794    0.0000 C   0  0
   -0.3779  -13.4511    0.0000 C   0  0
    0.6299  -12.3400    0.0000 C   0  0
    0.1684  -10.9119    0.0000 N   0  0
   -1.2990  -10.5965    0.0000 C   0  0
   -2.3028  -11.7111    0.0000 C   0  0
   -3.7700  -11.3990    0.0000 C   0  0
   -4.2333   -9.9723    0.0000 C   0  0
   -3.2294   -8.8578    0.0000 C   0  0
   -1.7622   -9.1698    0.0000 C   0  0
   -0.7600   -8.0526    0.0000 C   0  0
    0.7077   -8.3622    0.0000 O   0  0
   -1.2256   -6.6258    0.0000 N   0  0
   -0.2234   -5.5086    0.0000 C   0  0
   -0.6890   -4.0818    0.0000 C   0  0
    0.3114   -2.9665    0.0000 C   0  0
    1.8032   -3.1233    0.0000 C   0  0
    2.4133   -1.7530    0.0000 N   0  0
    1.2990   -0.7500    0.0000 C   0  0
    1.2990    0.7500    0.0000 C   0  0
    0.0000    1.5000    0.0000 C   0  0
   -1.2990    0.7500    0.0000 C   0  0
   -1.2990   -0.7500    0.0000 C   0  0
    0.0000   -1.5000    0.0000 C   0  0
  1  2  1  0
  2  3  2  0
  3  4  1  0
  4  5  2  0
  5  6  1  0
  6  7  2  0
  7  2  1  0
  7  8  1  0
  8  9  1  0
  9 10  2  0
 10 11  1  0
 11 12  2  0
 12 13  1  0
 13 14  2  0
 14  9  1  0
 14 15  1  0
 15 16  2  0
 15 17  1  0
 17 18  1  0
 18 19  1  0
 19 20  1  0
 20 21  2  0
 21 22  1  0
 22 23  1  0
 23 24  2  0
 24 25  1  0
 25 26  2  0
 26 27  1  0
 27 28  2  0
 28 20  1  0
 28 23  1  0
M  END
> <Smiles>
Cc1ccccc1Nc1ccccc1C(=O)NCCc1c[nH]c2ccccc12

> <ID>
CHEMBL4863487

> <standard_value>
30510

> <IC50_uM>
30.51

> <Activity>
No

> <pIC50>
4.515557792

> <BCI>
0

$$$$

  SciTegic03012415362D

 25 28  0  0  0  0            999 V2000
    2.5981   -1.5000    0.0000 O   0  0
    1.2990   -0.7500    0.0000 C   0  0
    1.2990    0.7500    0.0000 C   0  0
    0.0000    1.5000    0.0000 C   0  0
    0.0000    3.0008    0.0000 N   0  0
    1.2978    3.7529    0.0000 C   0  0
    1.2954    5.2529    0.0000 C   0  0
   -0.0048    6.0009    0.0000 N   0  0
   -0.0072    7.5016    0.0000 C   0  0
   -1.3086    8.2476    0.0000 C   0  0
   -1.3134    9.7476    0.0000 C   0  0
   -0.0167   10.5017    0.0000 C   0  0
    1.2847    9.7558    0.0000 C   0  0
    1.2895    8.2559    0.0000 C   0  0
    2.5909    7.5100    0.0000 Cl  0  0
   -1.3026    5.2488    0.0000 C   0  0
   -1.3002    3.7488    0.0000 C   0  0
   -1.2990    0.7500    0.0000 C   0  0
   -2.5981    1.5000    0.0000 O   0  0
   -1.2990   -0.7500    0.0000 C   0  0
   -2.5981   -1.5000    0.0000 C   0  0
   -2.5981   -3.0000    0.0000 C   0  0
   -1.2990   -3.7500    0.0000 C   0  0
    0.0000   -3.0000    0.0000 C   0  0
    0.0000   -1.5000    0.0000 C   0  0
  1  2  2  0
  2  3  1  0
  3  4  2  0
  4  5  1  0
  5  6  1  0
  6  7  1  0
  7  8  1  0
  8  9  1  0
  9 10  2  0
 10 11  1  0
 11 12  2  0
 12 13  1  0
 13 14  2  0
 14  9  1  0
 14 15  1  0
  8 16  1  0
 16 17  1  0
 17  5  1  0
  4 18  1  0
 18 19  2  0
 18 20  1  0
 20 21  2  0
 21 22  1  0
 22 23  2  0
 23 24  1  0
 24 25  2  0
 25 20  1  0
 25  2  1  0
M  END
> <Smiles>
O=C1C=C(N2CCN(c3ccccc3Cl)CC2)C(=O)c2ccccc21

> <ID>
CHEMBL1784141

> <standard_value>
30800

> <IC50_uM>
30.8

> <Activity>
No

> <pIC50>
4.511449283

> <BCI>
0

$$$$

  SciTegic03012415362D

 27 28  0  0  1  0            999 V2000
    5.2153   -5.9916    0.0000 C   0  0
    3.9139   -5.2457    0.0000 C   0  0
    2.6175   -6.0002    0.0000 C   0  0
    3.9082   -3.7449    0.0000 C   0  0
    2.6060   -2.9986    0.0000 C   0  0
    2.6003   -1.4977    0.0000 C   0  0  1  0  0  0
    3.8990   -0.7455    0.0000 O   0  0
    5.2003   -1.4932    0.0000 C   0  0
    5.2029   -2.9932    0.0000 O   0  0
    6.4990   -0.7409    0.0000 C   0  0
    7.8003   -1.4887    0.0000 C   0  0
    9.0983   -0.7368    0.0000 C   0  0
    7.8029   -2.9887    0.0000 C   0  0
    1.2990   -0.7500    0.0000 C   0  0
    1.2990    0.7500    0.0000 C   0  0
    0.0000    1.5000    0.0000 C   0  0
    0.0000    3.0000    0.0000 O   0  0
   -1.2990    0.7500    0.0000 C   0  0
   -2.5981    1.5000    0.0000 C   0  0
   -2.5981    3.0000    0.0000 O   0  0
   -3.8971    0.7500    0.0000 C   0  0
   -3.8971   -0.7500    0.0000 C   0  0
   -2.5981   -1.5000    0.0000 C   0  0
   -2.5981   -3.0000    0.0000 O   0  0
   -1.2990   -0.7500    0.0000 C   0  0
    0.0000   -1.5000    0.0000 C   0  0
    0.0000   -3.0000    0.0000 O   0  0
  1  2  1  0
  2  3  1  0
  2  4  2  0
  4  5  1  0
  6  5  1  6
  6  7  1  0
  7  8  1  0
  8  9  2  0
  8 10  1  0
 10 11  2  0
 11 12  1  0
 11 13  1  0
  6 14  1  0
 14 15  2  0
 15 16  1  0
 16 17  2  0
 16 18  1  0
 18 19  2  0
 19 20  1  0
 19 21  1  0
 21 22  2  0
 22 23  1  0
 23 24  1  0
 23 25  2  0
 25 18  1  0
 25 26  1  0
 26 14  1  0
 26 27  2  0
M  END
> <Smiles>
CC(C)=CC[C@@H](OC(=O)C=C(C)C)C1=CC(=O)c2c(O)ccc(O)c2C1=O

> <ID>
CHEMBL267024

> <standard_value>
30800

> <IC50_uM>
30.8

> <Activity>
No

> <pIC50>
4.511449283

> <BCI>
0

$$$$

  SciTegic03012415362D

 39 44  0  0  1  0            999 V2000
    2.1934   -5.8718    0.0000 C   0  0
    2.7084   -4.4629    0.0000 C   0  0
    4.1861   -4.2050    0.0000 C   0  0
    1.7461   -3.3113    0.0000 C   0  0
    2.2614   -1.9017    0.0000 C   0  0
    1.2990   -0.7500    0.0000 C   0  0
    1.2990    0.7500    0.0000 C   0  0
    2.5981    1.5000    0.0000 O   0  0
    0.0000    1.5000    0.0000 C   0  0
   -1.2990    0.7500    0.0000 C   0  0
   -1.2990   -0.7500    0.0000 C   0  0
    0.0000   -1.5000    0.0000 C   0  0
    0.0000   -3.0000    0.0000 O   0  0
   -2.5981   -1.5000    0.0000 C   0  0
   -2.5981   -3.0000    0.0000 O   0  0
   -3.8971   -0.7500    0.0000 C   0  0
   -5.1962   -1.5000    0.0000 C   0  0
   -6.4952   -0.7500    0.0000 C   0  0  3  0  0  0
   -6.4952    0.7500    0.0000 C   0  0
   -7.7942    1.5000    0.0000 O   0  0
   -5.1962    1.5000    0.0000 C   0  0  3  0  0  0
   -6.7069    1.5943    0.0000 C   0  0
   -7.3898    2.9308    0.0000 C   0  0
   -8.8886    3.0086    0.0000 C   0  0
   -9.5711    4.3443    0.0000 C   0  0
   -9.7045    1.7499    0.0000 C   0  0
   -6.6281    1.4607    0.0000 O   0  0
   -5.8781    2.7597    0.0000 C   0  0
   -5.1962    1.5000    0.0000 C   0  0  2  0  0  0
   -6.4952    0.7500    0.0000 C   0  0  1  0  0  0
   -7.9738    0.4924    0.0000 C   0  0
   -8.4909   -0.9165    0.0000 N   0  0
   -9.9683   -1.1761    0.0000 C   0  0
  -10.4822   -2.5853    0.0000 C   0  0
   -9.5188   -3.7350    0.0000 N   0  0
   -8.0414   -3.4755    0.0000 C   0  0
   -7.5274   -2.0663    0.0000 C   0  0
   -3.8971    0.7500    0.0000 C   0  0  3  0  0  0
   -2.5981    1.5000    0.0000 O   0  0
  1  2  1  0
  2  3  1  0
  2  4  2  0
  4  5  1  0
  5  6  1  0
  6  7  2  0
  7  8  1  0
  7  9  1  0
  9 10  2  0
 10 11  1  0
 11 12  2  0
 12  6  1  0
 12 13  1  0
 11 14  1  0
 14 15  2  0
 14 16  1  0
 16 17  2  0
 18 17  1  1
 18 19  1  0
 19 20  2  0
 19 21  1  0
 21 22  1  4
 22 23  1  0
 23 24  2  0
 24 25  1  0
 24 26  1  0
 21 27  1  0
 27 28  1  0
 29 28  1  1
 29 30  1  0
 30 18  1  0
 30 31  1  6
 31 32  1  0
 32 33  1  0
 33 34  1  0
 34 35  1  0
 35 36  1  0
 36 37  1  0
 37 32  1  0
 29 38  1  0
 38 16  1  0
 38 21  1  0
 38 39  1  1
 39 10  1  0
M  END
> <Smiles>
CC(C)=CCc1c(O)cc2c(c1O)C(=O)C1=C[C@H]3C(=O)C4(CC=C(C)C)OC[C@H]([C@H]3CN3CCNCC3)[C@]14O2

> <ID>
CHEMBL2336119

> <standard_value>
31000

> <IC50_uM>
31

> <Activity>
No

> <pIC50>
4.508638306

> <BCI>
0

$$$$

  SciTegic03012415362D

 23 25  0  0  0  0            999 V2000
    7.3532   -3.3675    0.0000 C   0  0
    6.3509   -2.2515    0.0000 C   0  0
    4.8823   -2.5608    0.0000 C   0  0
    3.8794   -1.4442    0.0000 C   0  0
    2.4133   -1.7530    0.0000 N   0  0
    1.2990   -0.7500    0.0000 C   0  0
    1.2990    0.7500    0.0000 C   0  0
    0.0000    1.5000    0.0000 C   0  0
   -0.0031    3.0008    0.0000 O   0  0
   -1.3039    3.7494    0.0000 C   0  0
   -1.3070    5.2502    0.0000 C   0  0
   -2.6071    5.9984    0.0000 C   0  0
   -0.0093    6.0025    0.0000 C   0  0
   -1.2990    0.7500    0.0000 C   0  0
   -1.2990   -0.7500    0.0000 C   0  0
    0.0000   -1.5000    0.0000 C   0  0
    0.3114   -2.9665    0.0000 C   0  0
   -0.5701   -4.1788    0.0000 C   0  0
    0.0400   -5.5491    0.0000 C   0  0
    1.5318   -5.7059    0.0000 N   0  0
    2.4135   -4.4923    0.0000 C   0  0
    3.9053   -4.6488    0.0000 C   0  0
    1.8032   -3.1233    0.0000 C   0  0
  1  2  1  0
  2  3  1  0
  3  4  1  0
  4  5  1  0
  5  6  1  0
  6  7  2  0
  7  8  1  0
  8  9  1  0
  9 10  1  0
 10 11  1  0
 11 12  1  0
 11 13  1  0
  8 14  2  0
 14 15  1  0
 15 16  2  0
 16  6  1  0
 16 17  1  0
 17 18  2  0
 18 19  1  0
 19 20  2  0
 20 21  1  0
 21 22  1  0
 21 23  2  0
 23 17  1  0
 23  5  1  0
M  END
> <Smiles>
CCCCn1c2cc(OCC(C)C)ccc2c2ccnc(C)c21

> <ID>
CHEMBL2314666

> <standard_value>
32300

> <IC50_uM>
32.3

> <Activity>
No

> <pIC50>
4.490797478

> <BCI>
0

$$$$

  SciTegic03012415362D

 29 32  0  0  0  0            999 V2000
    0.9928  -17.7362    0.0000 C   0  0
    2.0021  -16.6266    0.0000 O   0  0
    1.5465  -15.1966    0.0000 C   0  0
    2.5543  -14.0855    0.0000 C   0  0
    2.0959  -12.6573    0.0000 C   0  0
    0.6299  -12.3400    0.0000 C   0  0
    0.1684  -10.9119    0.0000 N   0  0
   -1.2990  -10.5965    0.0000 C   0  0
   -2.3028  -11.7111    0.0000 C   0  0
   -3.7700  -11.3990    0.0000 C   0  0
   -4.2333   -9.9723    0.0000 C   0  0
   -3.2294   -8.8578    0.0000 C   0  0
   -1.7622   -9.1698    0.0000 C   0  0
   -0.7600   -8.0526    0.0000 C   0  0
    0.7077   -8.3622    0.0000 O   0  0
   -1.2256   -6.6258    0.0000 N   0  0
   -0.2234   -5.5086    0.0000 C   0  0
   -0.6890   -4.0818    0.0000 C   0  0
    0.3114   -2.9665    0.0000 C   0  0
    1.8032   -3.1233    0.0000 C   0  0
    2.4133   -1.7530    0.0000 N   0  0
    1.2990   -0.7500    0.0000 C   0  0
    1.2990    0.7500    0.0000 C   0  0
    0.0000    1.5000    0.0000 C   0  0
   -1.2990    0.7500    0.0000 C   0  0
   -1.2990   -0.7500    0.0000 C   0  0
    0.0000   -1.5000    0.0000 C   0  0
   -0.3779  -13.4511    0.0000 C   0  0
    0.0804  -14.8794    0.0000 C   0  0
  1  2  1  0
  2  3  1  0
  3  4  2  0
  4  5  1  0
  5  6  2  0
  6  7  1  0
  7  8  1  0
  8  9  2  0
  9 10  1  0
 10 11  2  0
 11 12  1  0
 12 13  2  0
 13  8  1  0
 13 14  1  0
 14 15  2  0
 14 16  1  0
 16 17  1  0
 17 18  1  0
 18 19  1  0
 19 20  2  0
 20 21  1  0
 21 22  1  0
 22 23  2  0
 23 24  1  0
 24 25  2  0
 25 26  1  0
 26 27  2  0
 27 19  1  0
 27 22  1  0
  6 28  1  0
 28 29  2  0
 29  3  1  0
M  END
> <Smiles>
COc1ccc(Nc2ccccc2C(=O)NCCc2c[nH]c3ccccc23)cc1

> <ID>
CHEMBL4848416

> <standard_value>
32340

> <IC50_uM>
32.34

> <Activity>
No

> <pIC50>
4.490259984

> <BCI>
0

$$$$

  SciTegic03012415362D

 28 31  0  0  0  0            999 V2000
    0.7077   -8.3622    0.0000 O   0  0
   -0.7600   -8.0526    0.0000 C   0  0
   -1.2256   -6.6258    0.0000 N   0  0
   -0.2234   -5.5086    0.0000 C   0  0
   -0.6890   -4.0818    0.0000 C   0  0
    0.3114   -2.9665    0.0000 C   0  0
    1.8032   -3.1233    0.0000 C   0  0
    2.4133   -1.7530    0.0000 N   0  0
    1.2990   -0.7500    0.0000 C   0  0
    1.2990    0.7500    0.0000 C   0  0
    0.0000    1.5000    0.0000 C   0  0
   -1.2990    0.7500    0.0000 C   0  0
   -1.2990   -0.7500    0.0000 C   0  0
    0.0000   -1.5000    0.0000 C   0  0
   -1.7622   -9.1698    0.0000 C   0  0
   -3.2294   -8.8578    0.0000 C   0  0
   -4.2333   -9.9723    0.0000 C   0  0
   -3.7700  -11.3990    0.0000 C   0  0
   -2.3028  -11.7111    0.0000 C   0  0
   -1.2990  -10.5965    0.0000 C   0  0
    0.1684  -10.9119    0.0000 N   0  0
    0.6299  -12.3400    0.0000 C   0  0
   -0.3779  -13.4511    0.0000 C   0  0
    0.0804  -14.8794    0.0000 C   0  0
    1.5465  -15.1966    0.0000 C   0  0
    2.5543  -14.0855    0.0000 C   0  0
    2.0959  -12.6573    0.0000 C   0  0
    3.1037  -11.5463    0.0000 I   0  0
  1  2  2  0
  2  3  1  0
  3  4  1  0
  4  5  1  0
  5  6  1  0
  6  7  2  0
  7  8  1  0
  8  9  1  0
  9 10  2  0
 10 11  1  0
 11 12  2  0
 12 13  1  0
 13 14  2  0
 14  6  1  0
 14  9  1  0
  2 15  1  0
 15 16  2  0
 16 17  1  0
 17 18  2  0
 18 19  1  0
 19 20  2  0
 20 15  1  0
 20 21  1  0
 21 22  1  0
 22 23  2  0
 23 24  1  0
 24 25  2  0
 25 26  1  0
 26 27  2  0
 27 22  1  0
 27 28  1  0
M  END
> <Smiles>
O=C(NCCc1c[nH]c2ccccc12)c1ccccc1Nc1ccccc1I

> <ID>
CHEMBL4845806

> <standard_value>
32850

> <IC50_uM>
32.85

> <Activity>
No

> <pIC50>
4.483464626

> <BCI>
0

$$$$

  SciTegic03012415362D

 25 28  0  0  1  0            999 V2000
    3.9207   -1.7187    0.0000 C   0  0
    2.4208   -1.6992    0.0000 S   0  0
    1.6852   -0.3846    0.0000 C   0  0  1  0  0  0
    1.3514    1.0778    0.0000 C   0  0
    2.3882    2.1623    0.0000 C   0  0
    1.6774    3.4832    0.0000 C   0  0
    2.3282    4.8347    0.0000 C   0  0
    0.2015    3.2154    0.0000 S   0  0
    0.0000    1.7286    0.0000 C   0  0
   -1.3515    1.0777    0.0000 C   0  0
   -1.6852   -0.3847    0.0000 C   0  0
   -2.6719    0.7452    0.0000 C   0  0
   -2.0841   -1.8307    0.0000 C   0  0
   -0.7500   -1.5574    0.0000 C   0  0
    0.7500   -1.5574    0.0000 N   0  0
    1.9550   -2.4553    0.0000 C   0  0
    2.1566   -3.9417    0.0000 O   0  0
    2.8756   -1.2711    0.0000 C   0  0  1  0  0  0
    4.3569   -1.0713    0.0000 O   0  0
    5.2751   -2.2585    0.0000 C   0  0
    6.7619   -2.0601    0.0000 C   0  0
    7.6772   -3.2485    0.0000 C   0  0
    7.1056   -4.6354    0.0000 C   0  0
    5.6188   -4.8338    0.0000 C   0  0
    4.7035   -3.6454    0.0000 C   0  0
  1  2  1  0
  3  2  1  6
  3  4  1  0
  4  5  1  0
  5  6  2  0
  6  7  1  0
  6  8  1  0
  8  9  1  0
  9  4  2  0
  9 10  1  0
 10 11  1  0
 11 12  1  0
 11 13  1  0
 11 14  1  0
 14 15  1  0
 15  3  1  0
 15 16  1  0
 16 17  2  0
 16 18  1  0
 18  3  1  0
 18 19  1  6
 19 20  1  0
 20 21  2  0
 21 22  1  0
 22 23  2  0
 23 24  1  0
 24 25  2  0
 25 20  1  0
M  END
> <Smiles>
CS[C@@]12c3cc(C)sc3CC(C)(C)CN1C(=O)[C@H]2Oc1ccccc1

> <ID>
CHEMBL45240

> <standard_value>
33000

> <IC50_uM>
33

> <Activity>
No

> <pIC50>
4.48148606

> <BCI>
0

$$$$

  SciTegic03012415362D

 39 44  0  0  1  0            999 V2000
    6.4983   -0.7414    0.0000 C   0  0
    5.2003   -1.4932    0.0000 C   0  0
    5.2029   -2.9932    0.0000 C   0  0
    3.8990   -0.7455    0.0000 C   0  0
    2.6003   -1.4977    0.0000 C   0  0
    1.2990   -0.7500    0.0000 C   0  0
    1.2990    0.7500    0.0000 C   0  0
    2.5981    1.5000    0.0000 O   0  0
    0.0000    1.5000    0.0000 C   0  0
   -1.2990    0.7500    0.0000 C   0  0
   -2.5981    1.5000    0.0000 O   0  0
   -1.2990   -0.7500    0.0000 C   0  0
    0.0000   -1.5000    0.0000 C   0  0
    0.0000   -3.0000    0.0000 O   0  0
   -1.2990   -3.7500    0.0000 C   0  0  1  0  0  0
   -2.5981   -3.0000    0.0000 C   0  0
   -3.6733   -1.9297    0.0000 C   0  0
   -4.6833   -3.0387    0.0000 C   0  0  1  0  0  0
   -4.2278   -4.4679    0.0000 C   0  0
   -4.8933   -5.8123    0.0000 O   0  0
   -2.8256   -3.9670    0.0000 C   0  0  3  0  0  0
   -1.4829   -4.6510    0.0000 C   0  0
   -0.2326   -3.8208    0.0000 C   0  0
    1.1119   -4.4877    0.0000 C   0  0
    2.3616   -3.6581    0.0000 C   0  0
    1.2061   -5.9848    0.0000 C   0  0
   -3.1375   -5.4343    0.0000 O   0  0
   -1.8384   -6.1843    0.0000 C   0  0
   -0.7237   -5.1806    0.0000 C   0  0  2  0  0  0
   -3.4146   -4.9826    0.0000 C   0  0  1  0  0  0
   -4.2298   -6.2341    0.0000 C   0  0
   -3.5531   -7.5738    0.0000 N   0  0
   -4.3706   -8.8314    0.0000 C   0  0
   -3.6902  -10.1683    0.0000 C   0  0
   -2.1923  -10.2474    0.0000 O   0  0
   -1.3748   -8.9898    0.0000 C   0  0
   -2.0552   -7.6530    0.0000 C   0  0
   -2.5981   -1.5000    0.0000 C   0  0
   -3.8971   -0.7500    0.0000 O   0  0
  1  2  1  0
  2  3  1  0
  2  4  2  0
  4  5  1  0
  5  6  1  0
  6  7  2  0
  7  8  1  0
  7  9  1  0
  9 10  2  0
 10 11  1  0
 10 12  1  0
 12 13  2  0
 13  6  1  0
 13 14  1  0
 15 14  1  6
 15 16  1  0
 16 17  2  0
 18 17  1  6
 18 19  1  0
 19 20  2  0
 19 21  1  0
 21 15  1  0
 21 22  1  4
 22 23  1  0
 23 24  2  0
 24 25  1  0
 24 26  1  0
 21 27  1  0
 27 28  1  0
 29 28  1  6
 29 15  1  0
 29 30  1  0
 30 18  1  0
 30 31  1  1
 31 32  1  0
 32 33  1  0
 33 34  1  0
 34 35  1  0
 35 36  1  0
 36 37  1  0
 37 32  1  0
 16 38  1  0
 38 12  1  0
 38 39  2  0
M  END
> <Smiles>
CC(C)=CCc1c(O)cc(O)c2c1O[C@@]13C(=C[C@H]4C(=O)C1(CC=C(C)C)OC[C@@H]3[C@H]4CN1CCOCC1)C2=O

> <ID>
CHEMBL2335671

> <standard_value>
33100

> <IC50_uM>
33.1

> <Activity>
No

> <pIC50>
4.480172006

> <BCI>
0

$$$$

  SciTegic03012415362D

 19 19  0  0  0  0            999 V2000
    5.1887   -6.0105    0.0000 O   0  0
    3.8912   -5.2578    0.0000 C   0  0
    2.5909   -6.0056    0.0000 O   0  0
    3.8933   -3.7570    0.0000 C   0  0
    2.5951   -3.0039    0.0000 C   0  0
    2.5973   -1.5031    0.0000 C   0  0
    1.2990   -0.7500    0.0000 C   0  0
    1.2990    0.7500    0.0000 C   0  0
    0.0000    1.5000    0.0000 C   0  0
   -1.2990    0.7500    0.0000 C   0  0
   -2.6003    1.4977    0.0000 N   0  0
   -3.8990    0.7455    0.0000 C   0  0
   -5.2003    1.4932    0.0000 C   0  0
   -6.4983    0.7413    0.0000 Cl  0  0
   -2.6061    2.9986    0.0000 C   0  0
   -3.9082    3.7448    0.0000 C   0  0
   -3.9139    5.2448    0.0000 Cl  0  0
   -1.2990   -0.7500    0.0000 C   0  0
    0.0000   -1.5000    0.0000 C   0  0
  1  2  2  0
  2  3  1  0
  2  4  1  0
  4  5  1  0
  5  6  1  0
  6  7  1  0
  7  8  2  0
  8  9  1  0
  9 10  2  0
 10 11  1  0
 11 12  1  0
 12 13  1  0
 13 14  1  0
 11 15  1  0
 15 16  1  0
 16 17  1  0
 10 18  1  0
 18 19  2  0
 19  7  1  0
M  END
> <Smiles>
O=C(O)CCCc1ccc(N(CCCl)CCCl)cc1

> <ID>
CHEMBL515

> <standard_value>
33110

> <IC50_uM>
33.11

> <Activity>
No

> <pIC50>
4.480040819

> <BCI>
0

$$$$

  SciTegic03012415362D

 21 21  0  0  0  0            999 V2000
    6.4833   -9.7648    0.0000 C   0  0
    6.4855   -8.2648    0.0000 C   0  0
    5.1873   -7.5117    0.0000 C   0  0
    5.1894   -6.0109    0.0000 C   0  0
    6.4897   -5.2632    0.0000 O   0  0
    3.8912   -5.2578    0.0000 O   0  0
    3.8933   -3.7570    0.0000 C   0  0
    2.5951   -3.0039    0.0000 C   0  0
    2.5973   -1.5031    0.0000 C   0  0
    1.2990   -0.7500    0.0000 C   0  0
    1.2990    0.7500    0.0000 C   0  0
    0.0000    1.5000    0.0000 C   0  0
   -1.2990    0.7500    0.0000 C   0  0
   -2.5973    1.5031    0.0000 O   0  0
   -2.5951    3.0039    0.0000 C   0  0
   -1.2948    3.7516    0.0000 C   0  0
   -3.8926    3.7566    0.0000 O   0  0
   -1.2990   -0.7500    0.0000 C   0  0
   -2.5972   -1.5031    0.0000 O   0  0
   -2.5951   -3.0031    0.0000 C   0  0
    0.0000   -1.5000    0.0000 C   0  0
  1  2  1  0
  2  3  1  0
  3  4  1  0
  4  5  2  0
  4  6  1  0
  6  7  1  0
  7  8  1  0
  8  9  2  0
  9 10  1  0
 10 11  2  0
 11 12  1  0
 12 13  2  0
 13 14  1  0
 14 15  1  0
 15 16  1  0
 15 17  2  0
 13 18  1  0
 18 19  1  0
 19 20  1  0
 18 21  2  0
 21 10  1  0
M  END
> <Smiles>
CCCC(=O)OC/C=C/c1ccc(OC(C)=O)c(OC)c1

> <ID>
CHEMBL3588941

> <standard_value>
33300

> <IC50_uM>
33.3

> <Activity>
No

> <pIC50>
4.477555766

> <BCI>
0

$$$$

  SciTegic03012415362D

 26 27  0  0  1  0            999 V2000
    7.7996   -1.4883    0.0000 C   0  0
    6.4990   -0.7409    0.0000 C   0  0
    5.2003   -1.4932    0.0000 C   0  0
    3.9005   -0.7446    0.0000 C   0  0
    5.2015   -2.9940    0.0000 C   0  0
    6.5014   -3.7426    0.0000 O   0  0
    3.9028   -3.7463    0.0000 O   0  0
    3.9040   -5.2471    0.0000 C   0  0  1  0  0  0
    5.2052   -5.9934    0.0000 C   0  0
    5.2095   -7.4934    0.0000 C   0  0  1  0  0  0
    6.5106   -8.2397    0.0000 O   0  0
    3.9126   -8.2471    0.0000 C   0  0
    3.9168   -9.7471    0.0000 C   0  0
    2.6199  -10.5008    0.0000 C   0  0
    2.6242  -12.0008    0.0000 O   0  0
    1.3188   -9.7545    0.0000 C   0  0
    0.0212  -10.5086    0.0000 C   0  0
   -1.2798   -9.7619    0.0000 C   0  0
   -1.2761  -11.2617    0.0000 C   0  0
    0.0245  -12.0094    0.0000 O   0  0
   -1.2724  -12.7631    0.0000 O   0  0
    1.3145   -8.2545    0.0000 C   0  0
    2.6114   -7.5008    0.0000 C   0  0  1  0  0  0
    1.3102   -6.7545    0.0000 C   0  0
    2.6071   -6.0008    0.0000 C   0  0  1  0  0  0
    1.3060   -5.2545    0.0000 C   0  0
  1  2  1  0
  2  3  2  0
  3  4  1  0
  3  5  1  0
  5  6  2  0
  5  7  1  0
  8  7  1  1
  8  9  1  0
  9 10  1  0
 10 11  1  1
 10 12  1  0
 12 13  2  0
 13 14  1  0
 14 15  2  0
 14 16  1  0
 16 17  1  0
 17 18  1  0
 17 19  1  0
 17 20  1  0
 20 21  1  0
 16 22  2  0
 22 23  1  0
 23 12  1  0
 23 24  1  1
 23 25  1  0
 25  8  1  0
 25 26  1  1
M  END
> <Smiles>
C/C=C(/C)C(=O)O[C@H]1C[C@@H](O)C2=CC(=O)C(C(C)(C)OO)=C[C@]2(C)[C@H]1C

> <ID>
CHEMBL449632

> <standard_value>
33700

> <IC50_uM>
33.7

> <Activity>
No

> <pIC50>
4.472370099

> <BCI>
0

$$$$

  SciTegic03012415362D

 40 44  0  0  1  0            999 V2000
    6.4983   -0.7414    0.0000 C   0  0
    5.2003   -1.4932    0.0000 C   0  0
    5.2029   -2.9932    0.0000 C   0  0
    3.8990   -0.7455    0.0000 C   0  0
    2.6003   -1.4977    0.0000 C   0  0
    1.2990   -0.7500    0.0000 C   0  0
    1.2990    0.7500    0.0000 C   0  0
    2.5981    1.5000    0.0000 O   0  0
    0.0000    1.5000    0.0000 C   0  0
   -1.2990    0.7500    0.0000 C   0  0
   -2.5981    1.5000    0.0000 O   0  0
   -1.2990   -0.7500    0.0000 C   0  0
    0.0000   -1.5000    0.0000 C   0  0
    0.0000   -3.0000    0.0000 O   0  0
   -1.2990   -3.7500    0.0000 C   0  0  1  0  0  0
   -2.5981   -3.0000    0.0000 C   0  0
   -3.6733   -1.9297    0.0000 C   0  0
   -4.6833   -3.0387    0.0000 C   0  0  1  0  0  0
   -4.2278   -4.4679    0.0000 C   0  0
   -4.8933   -5.8123    0.0000 O   0  0
   -2.8256   -3.9670    0.0000 C   0  0  3  0  0  0
   -1.4829   -4.6510    0.0000 C   0  0
   -0.2326   -3.8208    0.0000 C   0  0
    1.1119   -4.4877    0.0000 C   0  0
    2.3616   -3.6581    0.0000 C   0  0
    1.2061   -5.9848    0.0000 C   0  0
   -3.1375   -5.4343    0.0000 O   0  0
   -1.8384   -6.1843    0.0000 C   0  0
   -0.7237   -5.1806    0.0000 C   0  0  2  0  0  0
   -3.4146   -4.9826    0.0000 C   0  0  1  0  0  0
   -4.2298   -6.2341    0.0000 C   0  0
   -3.5531   -7.5738    0.0000 N   0  0
   -4.3742   -8.8301    0.0000 C   0  0
   -3.6976  -10.1698    0.0000 C   0  0
   -4.5182  -11.4254    0.0000 O   0  0
   -2.0548   -7.6603    0.0000 C   0  0
   -1.3797   -9.0007    0.0000 C   0  0
    0.1178   -9.0871    0.0000 O   0  0
   -2.5981   -1.5000    0.0000 C   0  0
   -3.8971   -0.7500    0.0000 O   0  0
  1  2  1  0
  2  3  1  0
  2  4  2  0
  4  5  1  0
  5  6  1  0
  6  7  2  0
  7  8  1  0
  7  9  1  0
  9 10  2  0
 10 11  1  0
 10 12  1  0
 12 13  2  0
 13  6  1  0
 13 14  1  0
 15 14  1  6
 15 16  1  0
 16 17  2  0
 18 17  1  6
 18 19  1  0
 19 20  2  0
 19 21  1  0
 21 15  1  0
 21 22  1  4
 22 23  1  0
 23 24  2  0
 24 25  1  0
 24 26  1  0
 21 27  1  0
 27 28  1  0
 29 28  1  6
 29 15  1  0
 29 30  1  0
 30 18  1  0
 30 31  1  1
 31 32  1  0
 32 33  1  0
 33 34  1  0
 34 35  1  0
 32 36  1  0
 36 37  1  0
 37 38  1  0
 16 39  1  0
 39 12  1  0
 39 40  2  0
M  END
> <Smiles>
CC(C)=CCc1c(O)cc(O)c2c1O[C@@]13C(=C[C@H]4C(=O)C1(CC=C(C)C)OC[C@@H]3[C@H]4CN(CCO)CCO)C2=O

> <ID>
CHEMBL2335681

> <standard_value>
33900

> <IC50_uM>
33.9

> <Activity>
No

> <pIC50>
4.469800302

> <BCI>
0

$$$$

  SciTegic03012415362D

 41 45  0  0  0  0            999 V2000
    2.6030   -2.9977    0.0000 C   0  0
    2.6003   -1.4977    0.0000 C   0  0
    3.8983   -0.7459    0.0000 O   0  0
    1.2990   -0.7500    0.0000 C   0  0
    1.2990    0.7500    0.0000 C   0  0
    0.0000    1.5000    0.0000 C   0  0
   -1.2990    0.7500    0.0000 C   0  0
   -1.2990   -0.7500    0.0000 C   0  0
    0.0000   -1.5000    0.0000 C   0  0
    0.0000   -3.0008    0.0000 C   0  0
   -1.2978   -3.7529    0.0000 C   0  0
   -1.2955   -5.2529    0.0000 C   0  0
    0.0048   -6.0009    0.0000 C   0  0
    0.0072   -7.5016    0.0000 C   0  0
   -1.2895   -8.2559    0.0000 C   0  0
   -1.2847   -9.7558    0.0000 C   0  0
    0.0167  -10.5017    0.0000 N   0  0
    1.3133   -9.7476    0.0000 C   0  0
    2.6170  -10.4912    0.0000 N   0  0
    3.9133   -9.7348    0.0000 C   0  0
    3.9059   -8.2348    0.0000 O   0  0
    5.2170  -10.4784    0.0000 N   0  0
    6.5132   -9.7220    0.0000 C   0  0
    7.8173  -10.4633    0.0000 C   0  0
    9.1113   -9.7047    0.0000 C   0  0
   10.4160  -10.4465    0.0000 N   0  0
   10.4284  -11.9465    0.0000 C   0  0
   11.7336  -12.6858    0.0000 C   0  0
   13.0264  -11.9251    0.0000 O   0  0
   13.0141  -10.4251    0.0000 C   0  0
   11.7089   -9.6859    0.0000 C   0  0
    9.1014   -8.2048    0.0000 C   0  0
    7.7974   -7.4634    0.0000 C   0  0
    7.7874   -5.9626    0.0000 C   0  0
    9.0810   -5.2032    0.0000 F   0  0
    6.4832   -5.2216    0.0000 F   0  0
    7.7768   -4.4626    0.0000 F   0  0
    6.5034   -8.2220    0.0000 C   0  0
    1.3086   -8.2476    0.0000 N   0  0
    1.3026   -5.2488    0.0000 C   0  0
    1.3002   -3.7488    0.0000 N   0  0
  1  2  1  0
  2  3  2  0
  2  4  1  0
  4  5  2  0
  5  6  1  0
  6  7  2  0
  7  8  1  0
  8  9  2  0
  9  4  1  0
  9 10  1  0
 10 11  2  0
 11 12  1  0
 12 13  2  0
 13 14  1  0
 14 15  2  0
 15 16  1  0
 16 17  2  0
 17 18  1  0
 18 19  1  0
 19 20  1  0
 20 21  2  0
 20 22  1  0
 22 23  1  0
 23 24  2  0
 24 25  1  0
 25 26  1  0
 26 27  1  0
 27 28  1  0
 28 29  1  0
 29 30  1  0
 30 31  1  0
 31 26  1  0
 25 32  2  0
 32 33  1  0
 33 34  1  0
 34 35  1  0
 34 36  1  0
 34 37  1  0
 33 38  2  0
 38 23  1  0
 18 39  2  0
 39 14  1  0
 13 40  1  0
 40 41  2  0
 41 10  1  0
M  END
> <Smiles>
CC(=O)c1ccccc1-c1ccc(-c2ccnc(NC(=O)Nc3cc(N4CCOCC4)cc(C(F)(F)F)c3)n2)cn1

> <ID>
CHEMBL1163290

> <standard_value>
34900

> <IC50_uM>
34.9

> <Activity>
No

> <pIC50>
4.457174573

> <BCI>
0

$$$$

  SciTegic03012415362D

 39 44  0  0  1  0            999 V2000
    6.4983   -0.7414    0.0000 C   0  0
    5.2003   -1.4932    0.0000 C   0  0
    5.2029   -2.9932    0.0000 C   0  0
    3.8990   -0.7455    0.0000 C   0  0
    2.6003   -1.4977    0.0000 C   0  0
    1.2990   -0.7500    0.0000 C   0  0
    1.2990    0.7500    0.0000 C   0  0
    2.5981    1.5000    0.0000 O   0  0
    0.0000    1.5000    0.0000 C   0  0
   -1.2990    0.7500    0.0000 C   0  0
   -2.5981    1.5000    0.0000 O   0  0
   -1.2990   -0.7500    0.0000 C   0  0
    0.0000   -1.5000    0.0000 C   0  0
    0.0000   -3.0000    0.0000 O   0  0
   -1.2990   -3.7500    0.0000 C   0  0  1  0  0  0
   -2.5981   -3.0000    0.0000 C   0  0
   -3.6733   -1.9297    0.0000 C   0  0
   -4.6833   -3.0387    0.0000 C   0  0  1  0  0  0
   -4.2278   -4.4679    0.0000 C   0  0
   -4.8933   -5.8123    0.0000 O   0  0
   -2.8256   -3.9670    0.0000 C   0  0  3  0  0  0
   -1.4829   -4.6510    0.0000 C   0  0
   -0.2326   -3.8208    0.0000 C   0  0
    1.1119   -4.4877    0.0000 C   0  0
    2.3616   -3.6581    0.0000 C   0  0
    1.2061   -5.9848    0.0000 C   0  0
   -3.1375   -5.4343    0.0000 O   0  0
   -1.8384   -6.1843    0.0000 C   0  0
   -0.7237   -5.1806    0.0000 C   0  0  2  0  0  0
   -3.4146   -4.9826    0.0000 C   0  0  1  0  0  0
   -4.2298   -6.2341    0.0000 C   0  0
   -3.5531   -7.5738    0.0000 N   0  0
   -4.3706   -8.8314    0.0000 C   0  0
   -3.6902  -10.1683    0.0000 C   0  0
   -2.1923  -10.2474    0.0000 N   0  0
   -1.3748   -8.9898    0.0000 C   0  0
   -2.0552   -7.6530    0.0000 C   0  0
   -2.5981   -1.5000    0.0000 C   0  0
   -3.8971   -0.7500    0.0000 O   0  0
  1  2  1  0
  2  3  1  0
  2  4  2  0
  4  5  1  0
  5  6  1  0
  6  7  2  0
  7  8  1  0
  7  9  1  0
  9 10  2  0
 10 11  1  0
 10 12  1  0
 12 13  2  0
 13  6  1  0
 13 14  1  0
 15 14  1  6
 15 16  1  0
 16 17  2  0
 18 17  1  6
 18 19  1  0
 19 20  2  0
 19 21  1  0
 21 15  1  0
 21 22  1  4
 22 23  1  0
 23 24  2  0
 24 25  1  0
 24 26  1  0
 21 27  1  0
 27 28  1  0
 29 28  1  6
 29 15  1  0
 29 30  1  0
 30 18  1  0
 30 31  1  1
 31 32  1  0
 32 33  1  0
 33 34  1  0
 34 35  1  0
 35 36  1  0
 36 37  1  0
 37 32  1  0
 16 38  1  0
 38 12  1  0
 38 39  2  0
M  END
> <Smiles>
CC(C)=CCc1c(O)cc(O)c2c1O[C@@]13C(=C[C@H]4C(=O)C1(CC=C(C)C)OC[C@@H]3[C@H]4CN1CCNCC1)C2=O

> <ID>
CHEMBL2335672

> <standard_value>
35100

> <IC50_uM>
35.1

> <Activity>
No

> <pIC50>
4.454692884

> <BCI>
0

$$$$

  SciTegic03012415362D

 30 33  0  0  0  0            999 V2000
    3.8983   -0.7459    0.0000 C   0  0
    2.6003   -1.4977    0.0000 O   0  0
    1.2990   -0.7500    0.0000 C   0  0
    1.2990    0.7500    0.0000 C   0  0
    0.0000    1.5000    0.0000 C   0  0
    0.0000    3.0000    0.0000 N   0  0
   -1.2991    3.7500    0.0000 C   0  0
   -1.2991    5.2507    0.0000 N   0  0
   -0.0012    6.0029    0.0000 C   0  0
   -0.0036    7.5029    0.0000 C   0  0
   -1.3039    8.2509    0.0000 N   0  0
   -1.3093    9.7517    0.0000 C   0  0
   -0.0128   10.5060    0.0000 O   0  0
   -2.6114   10.4982    0.0000 C   0  0
   -3.9067    9.7416    0.0000 C   0  0
   -5.2095   10.4851    0.0000 C   0  0
   -5.2171   11.9851    0.0000 C   0  0
   -3.9218   12.7416    0.0000 C   0  0
   -2.6190   11.9982    0.0000 C   0  0
   -1.3238   12.7548    0.0000 N   0  0
   -2.6017    7.4988    0.0000 C   0  0
   -2.5993    5.9988    0.0000 C   0  0
   -2.5981    3.0000    0.0000 N   0  0
   -2.5981    1.5000    0.0000 C   0  0
   -3.8971    0.7500    0.0000 N   0  0
   -1.2990    0.7500    0.0000 C   0  0
   -1.2990   -0.7500    0.0000 C   0  0
    0.0000   -1.5000    0.0000 C   0  0
   -0.0031   -3.0008    0.0000 O   0  0
   -1.3032   -3.7490    0.0000 C   0  0
  1  2  1  0
  2  3  1  0
  3  4  2  0
  4  5  1  0
  5  6  2  0
  6  7  1  0
  7  8  1  0
  8  9  1  0
  9 10  1  0
 10 11  1  0
 11 12  1  0
 12 13  2  0
 12 14  1  0
 14 15  2  0
 15 16  1  0
 16 17  2  0
 17 18  1  0
 18 19  2  0
 19 14  1  0
 19 20  1  0
 11 21  1  0
 21 22  1  0
 22  8  1  0
  7 23  2  0
 23 24  1  0
 24 25  1  0
 24 26  2  0
 26  5  1  0
 26 27  1  0
 27 28  2  0
 28  3  1  0
 28 29  1  0
 29 30  1  0
M  END
> <Smiles>
COc1cc2nc(N3CCN(C(=O)c4ccccc4N)CC3)nc(N)c2cc1OC

> <ID>
CHEMBL4759706

> <standard_value>
35290

> <IC50_uM>
35.29

> <Activity>
No

> <pIC50>
4.452348342

> <BCI>
0

$$$$

  SciTegic03012415362D

 25 27  0  0  0  0            999 V2000
    2.5981   -1.5000    0.0000 C   0  0
    1.2990   -0.7500    0.0000 C   0  0
    1.2990    0.7500    0.0000 C   0  0
    0.0000    1.5000    0.0000 C   0  0
    0.0000    3.0000    0.0000 C   0  0
    1.2982    3.7531    0.0000 C   0  0
    1.2960    5.2531    0.0000 C   0  0
    2.5985    3.0054    0.0000 C   0  0
   -1.2991    3.7500    0.0000 C   0  0
   -2.5981    3.0000    0.0000 C   0  0
   -2.5981    1.5000    0.0000 C   0  0
   -3.8971    0.7500    0.0000 C   0  0
   -1.2990    0.7500    0.0000 C   0  0
   -1.2990   -0.7500    0.0000 C   0  0
    0.0000   -1.5000    0.0000 C   0  0
   -0.0031   -3.0008    0.0000 O   0  0
   -1.3039   -3.7494    0.0000 C   0  0
   -2.6016   -2.9971    0.0000 O   0  0
   -1.3070   -5.2502    0.0000 C   0  0
   -2.6060   -6.0003    0.0000 C   0  0
   -2.6060   -7.5003    0.0000 C   0  0
   -1.3070   -8.2503    0.0000 C   0  0
   -1.3071   -9.7503    0.0000 Cl  0  0
   -0.0080   -7.5003    0.0000 C   0  0
   -0.0079   -6.0003    0.0000 C   0  0
  1  2  1  0
  2  3  2  0
  3  4  1  0
  4  5  2  0
  5  6  1  0
  6  7  1  0
  6  8  1  0
  5  9  1  0
  9 10  2  0
 10 11  1  0
 11 12  1  0
 11 13  2  0
 13  4  1  0
 13 14  1  0
 14 15  2  0
 15  2  1  0
 15 16  1  0
 16 17  1  0
 17 18  2  0
 17 19  1  0
 19 20  2  0
 20 21  1  0
 21 22  2  0
 22 23  1  0
 22 24  1  0
 24 25  2  0
 25 19  1  0
M  END
> <Smiles>
Cc1cc2c(C(C)C)ccc(C)c2cc1OC(=O)c1ccc(Cl)cc1

> <ID>
CHEMBL4093795

> <standard_value>
35450

> <IC50_uM>
35.45

> <Activity>
No

> <pIC50>
4.45038376

> <BCI>
0

$$$$

  SciTegic03012415362D

 29 33  0  0  1  0            999 V2000
   -2.1778   -3.7154    0.0000 C   0  0
   -1.1384   -2.6339    0.0000 O   0  0
    0.3114   -2.9665    0.0000 C   0  0  1  0  0  0
    0.7974   -4.3856    0.0000 C   0  0
    1.8032   -3.1233    0.0000 N   0  0
    2.5551   -4.4192    0.0000 C   0  0
    4.0559   -4.4171    0.0000 C   0  0
    4.8090   -5.7153    0.0000 C   0  0
    6.3090   -5.7153    0.0000 C   0  0
    7.0591   -7.0143    0.0000 C   0  0
    6.3092   -8.3134    0.0000 C   0  0
    4.8092   -8.3134    0.0000 C   0  0
    4.0591   -7.0144    0.0000 C   0  0
    2.4133   -1.7530    0.0000 C   0  0
    3.8805   -1.4410    0.0000 O   0  0
    1.2990   -0.7500    0.0000 C   0  0
    1.2990    0.7500    0.0000 C   0  0
    0.0000    1.5000    0.0000 C   0  0
   -1.2990    0.7500    0.0000 C   0  0
   -2.4133    1.7530    0.0000 N   0  0
   -1.8032    3.1233    0.0000 C   0  0
   -2.4135    4.4923    0.0000 C   0  0
   -1.5318    5.7059    0.0000 C   0  0
   -0.0400    5.5491    0.0000 C   0  0
    0.5701    4.1788    0.0000 C   0  0
   -0.3115    2.9665    0.0000 C   0  0
   -1.2990   -0.7500    0.0000 C   0  0
   -2.5981   -1.5000    0.0000 O   0  0
    0.0000   -1.5000    0.0000 N   0  0
  1  2  1  0
  2  3  1  0
  3  4  1  1
  3  5  1  0
  5  6  1  0
  6  7  2  0
  7  8  1  0
  8  9  2  0
  9 10  1  0
 10 11  2  0
 11 12  1  0
 12 13  2  0
 13  8  1  0
  5 14  1  0
 14 15  2  0
 14 16  1  0
 16 17  2  0
 17 18  1  0
 18 19  2  0
 19 20  1  0
 20 21  1  0
 21 22  2  0
 22 23  1  0
 23 24  2  0
 24 25  1  0
 25 26  2  0
 26 21  1  0
 26 18  1  0
 19 27  1  0
 27 28  2  0
 27 29  1  0
 29 16  1  0
 29  3  1  0
M  END
> <Smiles>
CO[C@@]1(C)N(/C=C/c2ccccc2)C(=O)c2cc3c([nH]c4ccccc43)c(=O)n21

> <ID>
CHEMBL4748065

> <standard_value>
36000

> <IC50_uM>
36

> <Activity>
No

> <pIC50>
4.443697499

> <BCI>
0

$$$$

  SciTegic03012415362D

 39 44  0  0  1  0            999 V2000
    2.1934   -5.8718    0.0000 C   0  0
    2.7084   -4.4629    0.0000 C   0  0
    4.1861   -4.2050    0.0000 C   0  0
    1.7461   -3.3113    0.0000 C   0  0
    2.2614   -1.9017    0.0000 C   0  0
    1.2990   -0.7500    0.0000 C   0  0
    1.2990    0.7500    0.0000 C   0  0
    2.5981    1.5000    0.0000 O   0  0
    0.0000    1.5000    0.0000 C   0  0
   -1.2990    0.7500    0.0000 C   0  0
   -1.2990   -0.7500    0.0000 C   0  0
    0.0000   -1.5000    0.0000 C   0  0
    0.0000   -3.0000    0.0000 O   0  0
   -2.5981   -1.5000    0.0000 C   0  0
   -2.5981   -3.0000    0.0000 O   0  0
   -3.8971   -0.7500    0.0000 C   0  0
   -5.1962   -1.5000    0.0000 C   0  0
   -6.4952   -0.7500    0.0000 C   0  0  3  0  0  0
   -6.4952    0.7500    0.0000 C   0  0
   -7.7942    1.5000    0.0000 O   0  0
   -5.1962    1.5000    0.0000 C   0  0  3  0  0  0
   -6.7069    1.5943    0.0000 C   0  0
   -7.3898    2.9308    0.0000 C   0  0
   -8.8886    3.0086    0.0000 C   0  0
   -9.5711    4.3443    0.0000 C   0  0
   -9.7045    1.7499    0.0000 C   0  0
   -6.6281    1.4607    0.0000 O   0  0
   -5.8781    2.7597    0.0000 C   0  0
   -5.1962    1.5000    0.0000 C   0  0  2  0  0  0
   -6.4952    0.7500    0.0000 C   0  0  1  0  0  0
   -7.9738    0.4924    0.0000 C   0  0
   -8.4909   -0.9165    0.0000 N   0  0
   -9.9683   -1.1761    0.0000 C   0  0
  -10.4822   -2.5853    0.0000 C   0  0
   -9.5188   -3.7350    0.0000 O   0  0
   -8.0414   -3.4755    0.0000 C   0  0
   -7.5274   -2.0663    0.0000 C   0  0
   -3.8971    0.7500    0.0000 C   0  0  3  0  0  0
   -2.5981    1.5000    0.0000 O   0  0
  1  2  1  0
  2  3  1  0
  2  4  2  0
  4  5  1  0
  5  6  1  0
  6  7  2  0
  7  8  1  0
  7  9  1  0
  9 10  2  0
 10 11  1  0
 11 12  2  0
 12  6  1  0
 12 13  1  0
 11 14  1  0
 14 15  2  0
 14 16  1  0
 16 17  2  0
 18 17  1  1
 18 19  1  0
 19 20  2  0
 19 21  1  0
 21 22  1  4
 22 23  1  0
 23 24  2  0
 24 25  1  0
 24 26  1  0
 21 27  1  0
 27 28  1  0
 29 28  1  1
 29 30  1  0
 30 18  1  0
 30 31  1  6
 31 32  1  0
 32 33  1  0
 33 34  1  0
 34 35  1  0
 35 36  1  0
 36 37  1  0
 37 32  1  0
 29 38  1  0
 38 16  1  0
 38 21  1  0
 38 39  1  1
 39 10  1  0
M  END
> <Smiles>
CC(C)=CCc1c(O)cc2c(c1O)C(=O)C1=C[C@H]3C(=O)C4(CC=C(C)C)OC[C@H]([C@H]3CN3CCOCC3)[C@]14O2

> <ID>
CHEMBL2336118

> <standard_value>
36400

> <IC50_uM>
36.4

> <Activity>
No

> <pIC50>
4.438898616

> <BCI>
0

$$$$

  SciTegic03012415362D

 14 15  0  0  0  0            999 V2000
    2.5981   -1.5000    0.0000 C   0  0
    1.2990   -0.7500    0.0000 N   0  0
    1.2990    0.7500    0.0000 N   0  0
    0.0000    1.5000    0.0000 N   0  0
   -1.2990    0.7500    0.0000 C   0  0
   -2.7248    1.2135    0.0000 C   0  0
   -3.1905    2.6376    0.0000 C   0  0
   -2.1885    3.7539    0.0000 N   0  0
   -4.6581    2.9476    0.0000 O   0  0
   -3.6065    0.0000    0.0000 N   0  0
   -2.7248   -1.2135    0.0000 C   0  0
   -1.2990   -0.7500    0.0000 N   0  0
    0.0000   -1.5000    0.0000 C   0  0
    0.0000   -3.0000    0.0000 O   0  0
  1  2  1  0
  2  3  1  0
  3  4  2  0
  4  5  1  0
  5  6  2  0
  6  7  1  0
  7  8  1  0
  7  9  2  0
  6 10  1  0
 10 11  2  0
 11 12  1  0
 12  5  1  0
 12 13  1  0
 13  2  1  0
 13 14  2  0
M  END
> <Smiles>
Cn1nnc2c(C(N)=O)ncn2c1=O

> <ID>
CHEMBL810

> <standard_value>
36400

> <IC50_uM>
36.4

> <Activity>
No

> <pIC50>
4.438898616

> <BCI>
0

$$$$

  SciTegic03012415362D

 32 35  0  0  1  0            999 V2000
    3.8983   -0.7459    0.0000 C   0  0
    2.6003   -1.4977    0.0000 C   0  0
    1.2990   -0.7500    0.0000 C   0  0  2  0  0  0
    1.2990    0.7500    0.0000 C   0  0  1  0  0  0
    2.5793   -0.0316    0.0000 C   0  0
    1.2626    2.2300    0.0000 C   0  0  1  0  0  0
    2.5617    2.9799    0.0000 C   0  0
   -0.0369    2.9810    0.0000 C   0  0
   -0.0372    4.4810    0.0000 O   0  0
   -1.3360    2.2311    0.0000 O   0  0
    0.0000    1.5000    0.0000 C   0  0
   -1.2990    0.7500    0.0000 C   0  0
   -1.2990   -0.7500    0.0000 C   0  0  1  0  0  0
    0.0000   -1.5000    0.0000 C   0  0  2  0  0  0
    1.2990   -2.2500    0.0000 C   0  0
    0.0000   -3.0000    0.0000 C   0  0
   -1.2990   -3.7500    0.0000 C   0  0
   -2.5981   -3.0000    0.0000 C   0  0  1  0  0  0
   -2.5981   -4.5000    0.0000 C   0  0
   -3.8971   -3.7500    0.0000 C   0  0  2  0  0  0
   -3.8971   -5.2500    0.0000 C   0  0
   -5.1962   -6.0000    0.0000 C   0  0
   -3.8798   -6.7191    0.0000 C   0  0
   -6.5124   -6.7193    0.0000 C   0  0
   -6.4952   -5.2500    0.0000 C   0  0
   -6.4952   -3.7500    0.0000 C   0  0
   -5.1961   -3.0000    0.0000 C   0  0  1  0  0  0
   -6.4952   -2.2500    0.0000 C   0  0
   -5.1962   -1.5000    0.0000 C   0  0
   -3.8971   -0.7500    0.0000 C   0  0
   -2.5981   -1.5000    0.0000 C   0  0  2  0  0  0
   -2.5981    0.0000    0.0000 C   0  0
  1  2  2  0
  3  2  1  1
  3  4  1  0
  4  5  1  1
  4  6  1  0
  6  7  1  6
  6  8  1  0
  8  9  2  0
  8 10  1  0
  4 11  1  0
 11 12  1  0
 13 12  1  1
 13 14  1  0
 14  3  1  0
 14 15  1  1
 14 16  1  0
 16 17  1  0
 17 18  1  0
 18 19  1  6
 18 20  1  0
 20 21  1  6
 21 22  1  0
 22 23  1  0
 22 24  1  0
 22 25  1  0
 25 26  1  0
 26 27  1  0
 27 20  1  0
 27 28  1  1
 27 29  1  0
 29 30  1  0
 30 31  1  0
 31 13  1  0
 31 18  1  0
 31 32  1  1
M  END
> <Smiles>
C=C[C@@H]1[C@@](C)([C@@H](C)C(=O)O)CC[C@H]2[C@@]1(C)CC[C@@]1(C)[C@@H]3CC(C)(C)CC[C@]3(C)CC[C@]21C

> <ID>
CHEMBL1641905

> <standard_value>
36800

> <IC50_uM>
36.8

> <Activity>
No

> <pIC50>
4.434152181

> <BCI>
0

$$$$

  SciTegic03012415362D

 40 44  0  0  1  0            999 V2000
    2.1934   -5.8718    0.0000 C   0  0
    2.7084   -4.4629    0.0000 C   0  0
    4.1861   -4.2050    0.0000 C   0  0
    1.7461   -3.3113    0.0000 C   0  0
    2.2614   -1.9017    0.0000 C   0  0
    1.2990   -0.7500    0.0000 C   0  0
    1.2990    0.7500    0.0000 C   0  0
    2.5981    1.5000    0.0000 O   0  0
    0.0000    1.5000    0.0000 C   0  0
   -1.2990    0.7500    0.0000 C   0  0
   -1.2990   -0.7500    0.0000 C   0  0
    0.0000   -1.5000    0.0000 C   0  0
    0.0000   -3.0000    0.0000 O   0  0
   -2.5981   -1.5000    0.0000 C   0  0
   -2.5981   -3.0000    0.0000 O   0  0
   -3.8971   -0.7500    0.0000 C   0  0
   -5.1962   -1.5000    0.0000 C   0  0
   -6.4952   -0.7500    0.0000 C   0  0  3  0  0  0
   -6.4952    0.7500    0.0000 C   0  0
   -7.7942    1.5000    0.0000 O   0  0
   -5.1962    1.5000    0.0000 C   0  0  3  0  0  0
   -6.7069    1.5943    0.0000 C   0  0
   -7.3898    2.9308    0.0000 C   0  0
   -8.8886    3.0086    0.0000 C   0  0
   -9.5711    4.3443    0.0000 C   0  0
   -9.7045    1.7499    0.0000 C   0  0
   -6.6281    1.4607    0.0000 O   0  0
   -5.8781    2.7597    0.0000 C   0  0
   -5.1962    1.5000    0.0000 C   0  0  2  0  0  0
   -6.4952    0.7500    0.0000 C   0  0  1  0  0  0
   -7.9738    0.4924    0.0000 C   0  0
   -8.4909   -0.9165    0.0000 N   0  0
   -9.9694   -1.1741    0.0000 C   0  0
  -10.4862   -2.5823    0.0000 C   0  0
  -10.9309   -0.0228    0.0000 C   0  0
   -7.5265   -2.0665    0.0000 C   0  0
   -6.0490   -1.8075    0.0000 C   0  0
   -8.0404   -3.4758    0.0000 C   0  0
   -3.8971    0.7500    0.0000 C   0  0  3  0  0  0
   -2.5981    1.5000    0.0000 O   0  0
  1  2  1  0
  2  3  1  0
  2  4  2  0
  4  5  1  0
  5  6  1  0
  6  7  2  0
  7  8  1  0
  7  9  1  0
  9 10  2  0
 10 11  1  0
 11 12  2  0
 12  6  1  0
 12 13  1  0
 11 14  1  0
 14 15  2  0
 14 16  1  0
 16 17  2  0
 18 17  1  1
 18 19  1  0
 19 20  2  0
 19 21  1  0
 21 22  1  4
 22 23  1  0
 23 24  2  0
 24 25  1  0
 24 26  1  0
 21 27  1  0
 27 28  1  0
 29 28  1  1
 29 30  1  0
 30 18  1  0
 30 31  1  6
 31 32  1  0
 32 33  1  0
 33 34  1  0
 33 35  1  0
 32 36  1  0
 36 37  1  0
 36 38  1  0
 29 39  1  0
 39 16  1  0
 39 21  1  0
 39 40  1  1
 40 10  1  0
M  END
> <Smiles>
CC(C)=CCc1c(O)cc2c(c1O)C(=O)C1=C[C@H]3C(=O)C4(CC=C(C)C)OC[C@H]([C@H]3CN(C(C)C)C(C)C)[C@]14O2

> <ID>
CHEMBL2336126

> <standard_value>
37100

> <IC50_uM>
37.1

> <Activity>
No

> <pIC50>
4.43062609

> <BCI>
0

$$$$

  SciTegic03012415362D

 35 36  0  0  0  0            999 V2000
    3.8964    0.7545    0.0000 C   0  0
    3.8990   -0.7455    0.0000 C   0  0
    5.1996   -1.4928    0.0000 O   0  0
    2.6003   -1.4977    0.0000 O   0  0
    1.2990   -0.7500    0.0000 C   0  0
    1.2990    0.7500    0.0000 C   0  0
    0.0000    1.5000    0.0000 C   0  0
   -1.2990    0.7500    0.0000 C   0  0
   -2.6003    1.4977    0.0000 C   0  0
   -3.8990    0.7455    0.0000 C   0  0
   -5.2003    1.4932    0.0000 O   0  0
   -6.4990    0.7409    0.0000 C   0  0
   -6.4964   -0.7591    0.0000 O   0  0
   -7.8003    1.4887    0.0000 C   0  0
   -9.0990    0.7364    0.0000 C   0  0
  -10.4003    1.4841    0.0000 C   0  0
  -11.6994    0.7341    0.0000 C   0  0
  -12.9984    1.4841    0.0000 C   0  0
  -12.9985    2.9841    0.0000 C   0  0
  -14.2998    3.7318    0.0000 O   0  0
  -15.5984    2.9795    0.0000 C   0  0
  -15.5958    1.4795    0.0000 C   0  0
  -16.8990    3.7268    0.0000 O   0  0
  -11.6994    3.7341    0.0000 C   0  0
  -11.6964    5.2350    0.0000 O   0  0
  -10.3956    5.9836    0.0000 C   0  0
   -9.0979    5.2314    0.0000 C   0  0
  -10.3926    7.4836    0.0000 O   0  0
  -10.4004    2.9842    0.0000 C   0  0
   -1.2990   -0.7500    0.0000 C   0  0
    0.0000   -1.5000    0.0000 C   0  0
   -0.0031   -3.0008    0.0000 O   0  0
   -1.3039   -3.7494    0.0000 C   0  0
   -2.6016   -2.9971    0.0000 C   0  0
   -1.3070   -5.2494    0.0000 O   0  0
  1  2  1  0
  2  3  2  0
  2  4  1  0
  4  5  1  0
  5  6  2  0
  6  7  1  0
  7  8  2  0
  8  9  1  0
  9 10  1  0
 10 11  1  0
 11 12  1  0
 12 13  2  0
 12 14  1  0
 14 15  1  0
 15 16  1  0
 16 17  2  0
 17 18  1  0
 18 19  2  0
 19 20  1  0
 20 21  1  0
 21 22  1  0
 21 23  2  0
 19 24  1  0
 24 25  1  0
 25 26  1  0
 26 27  1  0
 26 28  2  0
 24 29  2  0
 29 16  1  0
  8 30  1  0
 30 31  2  0
 31  5  1  0
 31 32  1  0
 32 33  1  0
 33 34  1  0
 33 35  2  0
M  END
> <Smiles>
CC(=O)Oc1ccc(CCOC(=O)CCc2ccc(OC(C)=O)c(OC(C)=O)c2)cc1OC(C)=O

> <ID>
CHEMBL3357167

> <standard_value>
37250

> <IC50_uM>
37.25

> <Activity>
No

> <pIC50>
4.428873723

> <BCI>
0

$$$$

  SciTegic03012415362D

 32 35  0  0  1  0            999 V2000
    2.5981   -1.5000    0.0000 O   0  0
    1.2990   -0.7500    0.0000 C   0  0
    1.2990    0.7500    0.0000 C   0  0
    2.5972    1.5031    0.0000 O   0  0
    3.8990    0.7562    0.0000 C   0  0  2  0  0  0
    3.9001   -0.7439    0.0000 O   0  0
    5.1996   -1.4930    0.0000 C   0  0  2  0  0  0
    5.1975   -2.9938    0.0000 C   0  0
    3.8979   -3.7429    0.0000 O   0  0
    6.4982   -0.7421    0.0000 C   0  0  1  0  0  0
    7.7977   -1.4913    0.0000 O   0  0
    6.4972    0.7579    0.0000 C   0  0  2  0  0  0
    7.7957    1.5087    0.0000 O   0  0
    5.1976    1.5070    0.0000 C   0  0  1  0  0  0
    5.1967    3.0070    0.0000 O   0  0
    0.0000    1.5000    0.0000 C   0  0
    0.0000    3.0008    0.0000 C   0  0
    1.2978    3.7529    0.0000 C   0  0
    1.2954    5.2529    0.0000 C   0  0
   -0.0048    6.0009    0.0000 C   0  0
   -0.0072    7.5009    0.0000 O   0  0
   -1.3026    5.2488    0.0000 C   0  0
   -1.3002    3.7488    0.0000 C   0  0
   -1.2990    0.7500    0.0000 O   0  0
   -1.2990   -0.7500    0.0000 C   0  0
   -2.5981   -1.5000    0.0000 C   0  0
   -2.5981   -3.0000    0.0000 C   0  0
   -3.8971   -3.7500    0.0000 O   0  0
   -1.2990   -3.7500    0.0000 C   0  0
    0.0000   -3.0000    0.0000 C   0  0
    1.2991   -3.7500    0.0000 O   0  0
    0.0000   -1.5000    0.0000 C   0  0
  1  2  2  0
  2  3  1  0
  3  4  1  0
  5  4  1  1
  5  6  1  0
  6  7  1  0
  7  8  1  1
  8  9  1  0
  7 10  1  0
 10 11  1  6
 10 12  1  0
 12 13  1  1
 12 14  1  0
 14  5  1  0
 14 15  1  6
  3 16  2  0
 16 17  1  0
 17 18  2  0
 18 19  1  0
 19 20  2  0
 20 21  1  0
 20 22  1  0
 22 23  2  0
 23 17  1  0
 16 24  1  0
 24 25  1  0
 25 26  2  0
 26 27  1  0
 27 28  1  0
 27 29  2  0
 29 30  1  0
 30 31  1  0
 30 32  2  0
 32  2  1  0
 32 25  1  0
M  END
> <Smiles>
O=c1c(O[C@@H]2O[C@H](CO)[C@@H](O)[C@H](O)[C@H]2O)c(-c2ccc(O)cc2)oc2cc(O)cc(O)c12

> <ID>
CHEMBL233930

> <standard_value>
37600

> <IC50_uM>
37.6

> <Activity>
No

> <pIC50>
4.424812155

> <BCI>
0

$$$$

  SciTegic03012415362D

 27 30  0  0  0  0            999 V2000
    3.8976   -0.7553    0.0000 O   0  0
    2.5973   -1.5031    0.0000 C   0  0
    1.2990   -0.7500    0.0000 C   0  0
    1.2990    0.7500    0.0000 C   0  0
    0.0000    1.5000    0.0000 C   0  0
   -1.2990    0.7500    0.0000 C   0  0
   -2.7248    1.2135    0.0000 N   0  0
   -3.6065    0.0000    0.0000 C   0  0
   -5.1047   -0.0031    0.0000 N   0  0
   -5.8532   -1.3040    0.0000 C   0  0
   -5.1009   -2.6017    0.0000 O   0  0
   -7.3541   -1.3071    0.0000 C   0  0
   -8.1022   -2.6072    0.0000 F   0  0
   -8.8541   -1.3095    0.0000 F   0  0
   -8.1063   -0.0094    0.0000 F   0  0
   -2.7248   -1.2135    0.0000 C   0  0
   -1.2990   -0.7500    0.0000 N   0  0
    0.0000   -1.5000    0.0000 C   0  0
    2.5951   -3.0039    0.0000 C   0  0
    3.8056   -3.8679    0.0000 C   0  0
    3.3372   -5.2921    0.0000 C   0  0
    4.0826   -6.5937    0.0000 C   0  0
    3.3281   -7.8901    0.0000 C   0  0
    1.8281   -7.8849    0.0000 C   0  0
    1.0827   -6.5833    0.0000 C   0  0
    1.8372   -5.2869    0.0000 C   0  0
    1.3786   -3.8595    0.0000 N   0  0
  1  2  2  0
  2  3  1  0
  3  4  1  0
  4  5  2  0
  5  6  1  0
  6  7  2  0
  7  8  1  0
  8  9  1  0
  9 10  1  0
 10 11  2  0
 10 12  1  0
 12 13  1  0
 12 14  1  0
 12 15  1  0
  8 16  2  0
 16 17  1  0
 17  6  1  0
 17 18  1  0
 18  3  2  0
  2 19  1  0
 19 20  2  0
 20 21  1  0
 21 22  2  0
 22 23  1  0
 23 24  2  0
 24 25  1  0
 25 26  2  0
 26 21  1  0
 26 27  1  0
 27 19  1  0
M  END
> <Smiles>
O=C(c1ccc2nc(NC(=O)C(F)(F)F)cn2c1)c1cc2ccccc2[nH]1

> <ID>
CHEMBL1095688

> <standard_value>
37700

> <IC50_uM>
37.7

> <Activity>
No

> <pIC50>
4.42365865

> <BCI>
0

$$$$

  SciTegic03012415362D

 22 24  0  0  0  0            999 V2000
    3.1476   -0.7184    0.0000 C   0  0
    1.6852   -0.3846    0.0000 C   0  0
    1.3514    1.0778    0.0000 C   0  0
    0.0000    1.7286    0.0000 C   0  0
   -1.3515    1.0777    0.0000 C   0  0
   -2.4523    2.0983    0.0000 C   0  0
   -2.1188    3.5607    0.0000 O   0  0
   -3.8856    1.6561    0.0000 C   0  0
   -4.2194    0.1937    0.0000 C   0  0
   -5.6526   -0.2516    0.0000 C   0  0
   -5.9845   -1.7153    0.0000 C   0  0
   -7.4177   -2.1606    0.0000 C   0  0
   -8.5174   -1.1404    0.0000 C   0  0
   -9.9508   -1.5826    0.0000 C   0  0
  -10.2845   -3.0450    0.0000 C   0  0
   -9.1849   -4.0652    0.0000 C   0  0
   -7.7516   -3.6230    0.0000 C   0  0
   -6.6520   -4.6433    0.0000 O   0  0
   -3.1198   -0.8265    0.0000 C   0  0
   -1.6852   -0.3847    0.0000 C   0  0
   -0.7500   -1.5574    0.0000 O   0  0
    0.7500   -1.5574    0.0000 C   0  0
  1  2  1  0
  2  3  2  0
  3  4  1  0
  4  5  1  0
  5  6  2  0
  6  7  1  0
  6  8  1  0
  8  9  2  0
  9 10  1  0
 10 11  1  0
 11 12  1  0
 12 13  2  0
 13 14  1  0
 14 15  2  0
 15 16  1  0
 16 17  2  0
 17 12  1  0
 17 18  1  0
  9 19  1  0
 19 20  2  0
 20  5  1  0
 20 21  1  0
 21 22  1  0
 22  2  1  0
M  END
> <Smiles>
CC1=CCc2c(O)cc(CCc3ccccc3O)cc2OC1

> <ID>
CHEMBL4473474

> <standard_value>
38600

> <IC50_uM>
38.6

> <Activity>
No

> <pIC50>
4.413412695

> <BCI>
0

$$$$

  SciTegic03012415362D

 42 47  0  0  1  0            999 V2000
    4.2546    3.7930    0.0000 C   0  0
    5.3747    2.7953    0.0000 C   0  0
    6.7282    3.4421    0.0000 C   0  0
    9.0526    1.8470    0.0000 C   0  0
   10.5383    2.0534    0.0000 O   0  0
    8.9360    0.3516    0.0000 O   0  0
    5.3247    0.0318    0.0000 C   0  0  1  0  0  0
    6.3924   -0.8639    0.0000 C   0  0
    7.8854   -0.7191    0.0000 C   0  0
    8.8992   -1.8246    0.0000 O   0  0
    8.1807    3.0676    0.0000 O   0  0
    4.9228    1.4770    0.0000 C   0  0  1  0  0  0
    3.4703    1.8515    0.0000 C   0  0
    2.4169    0.7796    0.0000 C   0  0  1  0  0  0
    1.2713    1.8102    0.0000 C   0  0
   -0.2306    2.1773    0.0000 C   0  0  2  0  0  0
   -0.2394    3.6773    0.0000 O   0  0
   -1.7240    1.7936    0.0000 C   0  0  1  0  0  0
   -1.0097    3.1126    0.0000 C   0  0
   -2.2046    3.2119    0.0000 O   0  0
   -3.6691    3.5361    0.0000 C   0  0
   -3.9027    5.0182    0.0000 C   0  0
   -5.2066    5.7597    0.0000 C   0  0
   -5.1043    7.2562    0.0000 O   0  0
   -6.5993    5.2026    0.0000 C   0  0
   -7.7055    6.2157    0.0000 O   0  0
   -7.0321    3.7664    0.0000 C   0  0
   -6.1790    2.5326    0.0000 C   0  0
   -6.9207    1.2288    0.0000 C   0  0
   -4.6822    2.4299    0.0000 C   0  0
   -4.2307    0.9995    0.0000 C   0  0
   -2.7617    0.6765    0.0000 C   0  0  1  0  0  0
   -2.7950   -0.8145    0.0000 C   0  0
   -1.6696   -1.7380    0.0000 C   0  0
   -3.1016   -2.1845    0.0000 C   0  0
   -0.5151   -2.6955    0.0000 C   0  0
   -0.2759   -1.3112    0.0000 C   0  0
    0.7409   -2.3551    0.0000 C   0  0
    2.1627   -2.0327    0.0000 C   0  0
    2.8178   -0.6905    0.0000 C   0  0  1  0  0  0
    3.4580   -2.0470    0.0000 C   0  0
    4.2742   -1.0388    0.0000 O   0  0
  1  2  1  0
  2  3  2  0
  3  4  1  0
  4  5  2  0
  4  6  1  0
  7  6  1  6
  7  8  1  0
  8  9  1  0
  9 10  2  0
  9 11  1  0
 12 11  1  1
 12  2  1  0
 12  7  1  0
 12 13  1  0
 14 13  1  6
 14 15  1  0
 15 16  1  0
 16 17  1  1
 16 18  1  0
 18 19  1  1
 18 20  1  0
 20 21  1  0
 21 22  1  0
 22 23  2  0
 23 24  1  0
 23 25  1  0
 25 26  2  0
 25 27  1  0
 27 28  2  0
 28 29  1  0
 28 30  1  0
 30 21  2  0
 30 31  1  0
 32 31  1  6
 32 18  1  0
 32 33  1  0
 33 34  1  0
 34 35  1  0
 34 36  1  0
 34 37  1  0
 37 38  2  0
 38 39  1  0
 39 40  1  0
 40 14  1  0
 40 41  1  6
 40 42  1  0
 42  7  1  0
M  END
> <Smiles>
CC1=CC(=O)O[C@@]23CC(=O)O[C@@]12C[C@H]1C[C@H](O)[C@@]2(C)Oc4cc(O)c(=O)cc(C)c4C[C@H]2CC(C)(C)/C=C/C[C@]1(C)O3

> <ID>
CHEMBL4565372

> <standard_value>
38800

> <IC50_uM>
38.8

> <Activity>
No

> <pIC50>
4.411168274

> <BCI>
0

$$$$

  SciTegic03012415362D

 32 36  0  0  1  0            999 V2000
    3.9207   -1.7187    0.0000 C   0  0
    2.4208   -1.6992    0.0000 S   0  0
    1.6852   -0.3846    0.0000 C   0  0  1  0  0  0
    1.3514    1.0778    0.0000 C   0  0
    2.3882    2.1623    0.0000 C   0  0
    1.6774    3.4832    0.0000 C   0  0
    2.3282    4.8347    0.0000 C   0  0
    0.2015    3.2154    0.0000 N   0  0
   -0.8832    4.2525    0.0000 C   0  0
   -0.6381    5.7273    0.0000 C   0  0
   -1.7972    6.6795    0.0000 C   0  0
   -3.2013    6.1517    0.0000 C   0  0
   -4.3603    7.1039    0.0000 I   0  0
   -3.4463    4.6719    0.0000 C   0  0
   -2.2872    3.7197    0.0000 C   0  0
    0.0000    1.7286    0.0000 C   0  0
   -1.3515    1.0777    0.0000 C   0  0
   -1.6852   -0.3847    0.0000 C   0  0
   -2.6719    0.7452    0.0000 C   0  0
   -2.0841   -1.8307    0.0000 C   0  0
   -0.7500   -1.5574    0.0000 C   0  0
    0.7500   -1.5574    0.0000 N   0  0
    1.9550   -2.4553    0.0000 C   0  0
    2.1566   -3.9417    0.0000 O   0  0
    2.8756   -1.2711    0.0000 C   0  0  1  0  0  0
    4.3569   -1.0713    0.0000 O   0  0
    5.2751   -2.2585    0.0000 C   0  0
    6.7619   -2.0601    0.0000 C   0  0
    7.6772   -3.2485    0.0000 C   0  0
    7.1056   -4.6354    0.0000 C   0  0
    5.6188   -4.8338    0.0000 C   0  0
    4.7035   -3.6454    0.0000 C   0  0
  1  2  1  0
  3  2  1  6
  3  4  1  0
  4  5  1  0
  5  6  2  0
  6  7  1  0
  6  8  1  0
  8  9  1  0
  9 10  2  0
 10 11  1  0
 11 12  2  0
 12 13  1  0
 12 14  1  0
 14 15  2  0
 15  9  1  0
  8 16  1  0
 16  4  2  0
 16 17  1  0
 17 18  1  0
 18 19  1  0
 18 20  1  0
 18 21  1  0
 21 22  1  0
 22  3  1  0
 22 23  1  0
 23 24  2  0
 23 25  1  0
 25  3  1  0
 25 26  1  6
 26 27  1  0
 27 28  2  0
 28 29  1  0
 29 30  2  0
 30 31  1  0
 31 32  2  0
 32 27  1  0
M  END
> <Smiles>
CS[C@@]12c3cc(C)n(-c4ccc(I)cc4)c3CC(C)(C)CN1C(=O)[C@H]2Oc1ccccc1

> <ID>
CHEMBL412883

> <standard_value>
40000

> <IC50_uM>
40

> <Activity>
No

> <pIC50>
4.397940009

> <BCI>
0

$$$$

  SciTegic03012415362D

 30 34  0  0  1  0            999 V2000
    3.1293   -8.3745    0.0000 C   0  0
    4.1330   -7.2598    0.0000 O   0  0
    3.6701   -5.8321    0.0000 C   0  0
    2.2024   -5.5223    0.0000 C   0  0
    1.7368   -4.0964    0.0000 C   0  0
    2.7389   -2.9803    0.0000 C   0  0
    4.2066   -3.2900    0.0000 C   0  0
    4.6722   -4.7159    0.0000 C   0  0
    6.1400   -5.0289    0.0000 O   0  0
    6.6035   -6.4555    0.0000 C   0  0
    4.9545   -1.9907    0.0000 C   0  0
    6.4461   -1.8319    0.0000 O   0  0
    3.9492   -0.8775    0.0000 O   0  0
    2.5987   -1.5004    0.0000 C   0  0  2  0  0  0
    1.2990   -0.7500    0.0000 C   0  0  1  0  0  0
    1.2990    0.7500    0.0000 C   0  0
    0.0000    1.5000    0.0000 C   0  0
    0.0000    3.0000    0.0000 C   0  0
    1.2990    3.7500    0.0000 C   0  0
    2.5981    3.0000    0.0000 C   0  0
    2.5981    1.5000    0.0000 C   0  0
    3.8963    0.7469    0.0000 O   0  0
    3.8949   -0.2531    0.0000 C   0  0
    3.7123    4.0030    0.0000 O   0  0
    3.1022    5.3733    0.0000 C   0  0
    1.6105    5.2165    0.0000 O   0  0
   -1.2990    0.7500    0.0000 C   0  0
   -1.2990   -0.7500    0.0000 C   0  0
    0.0000   -1.5000    0.0000 N   0  0
    0.0000   -3.0000    0.0000 C   0  0
  1  2  1  0
  2  3  1  0
  3  4  2  0
  4  5  1  0
  5  6  2  0
  6  7  1  0
  7  8  2  0
  8  3  1  0
  8  9  1  0
  9 10  1  0
  7 11  1  0
 11 12  2  0
 11 13  1  0
 14 13  1  1
 14  6  1  0
 14 15  1  0
 15 16  1  6
 16 17  2  0
 17 18  1  0
 18 19  2  0
 19 20  1  0
 20 21  2  0
 21 16  1  0
 21 22  1  0
 22 23  1  0
 20 24  1  0
 24 25  1  0
 25 26  1  0
 26 19  1  0
 17 27  1  0
 27 28  1  0
 28 29  1  0
 29 15  1  0
 29 30  1  0
M  END
> <Smiles>
COc1ccc2c(c1OC)C(=O)O[C@@H]2[C@H]1c2c(cc3c(c2OC)OCO3)CCN1C

> <ID>
CHEMBL364713

> <standard_value>
40000

> <IC50_uM>
40

> <Activity>
No

> <pIC50>
4.397940009

> <BCI>
0

$$$$

  SciTegic03012415362D

 31 33  0  0  0  0            999 V2000
    3.8983   -0.7459    0.0000 C   0  0
    2.6003   -1.4977    0.0000 O   0  0
    1.2990   -0.7500    0.0000 C   0  0
    1.2990    0.7500    0.0000 C   0  0
    0.0000    1.5000    0.0000 C   0  0
    0.0000    3.0000    0.0000 F   0  0
   -1.2990    0.7500    0.0000 C   0  0
   -2.5981    1.5000    0.0000 F   0  0
   -1.2990   -0.7500    0.0000 C   0  0
   -2.5972   -1.5031    0.0000 N   0  0
   -2.5951   -3.0039    0.0000 C   0  0
   -1.2935   -3.7495    0.0000 C   0  0
   -1.2883   -5.2495    0.0000 C   0  0
   -2.5847   -6.0040    0.0000 C   0  0
   -2.5795   -7.5040    0.0000 I   0  0
   -3.8863   -5.2585    0.0000 C   0  0
   -3.8915   -3.7585    0.0000 C   0  0
   -5.1932   -3.0130    0.0000 F   0  0
    0.0000   -1.5000    0.0000 C   0  0
    0.0031   -3.0008    0.0000 N   0  0
    1.3039   -3.7494    0.0000 S   0  0
    1.3015   -2.2494    0.0000 O   0  0
    2.6016   -2.9971    0.0000 O   0  0
    1.3070   -5.2506    0.0000 C   0  0
    2.6081   -5.9988    0.0000 C   0  0
    2.6116   -7.4996    0.0000 C   0  0  3  0  0  0
    1.3141   -8.2523    0.0000 O   0  0
    3.9127   -8.2477    0.0000 C   0  0
    3.9162   -9.7477    0.0000 O   0  0
   -0.0778   -5.1866    0.0000 C   0  0
    0.6747   -6.4843    0.0000 C   0  0
  1  2  1  0
  2  3  1  0
  3  4  2  0
  4  5  1  0
  5  6  1  0
  5  7  2  0
  7  8  1  0
  7  9  1  0
  9 10  1  0
 10 11  1  0
 11 12  2  0
 12 13  1  0
 13 14  2  0
 14 15  1  0
 14 16  1  0
 16 17  2  0
 17 11  1  0
 17 18  1  0
  9 19  2  0
 19  3  1  0
 19 20  1  0
 20 21  1  0
 21 22  2  0
 21 23  2  0
 21 24  1  0
 24 25  1  0
 25 26  1  0
 26 27  1  4
 26 28  1  0
 28 29  1  0
 24 30  1  0
 30 31  1  0
 31 24  1  0
M  END
> <Smiles>
COc1cc(F)c(F)c(Nc2ccc(I)cc2F)c1NS(=O)(=O)C1(CC(O)CO)CC1

> <ID>
CHEMBL3349342

> <standard_value>
40016.55

> <IC50_uM>
40.01655

> <Activity>
No

> <pIC50>
4.397760356

> <BCI>
0

$$$$

  SciTegic03012415362D

 29 33  0  0  1  0            999 V2000
    3.4055   -6.1645    0.0000 C   0  0
    2.3610   -5.0880    0.0000 C   0  0
    2.7715   -3.6452    0.0000 C   0  0
    0.9054   -5.4536    0.0000 C   0  0
   -0.1397   -4.3764    0.0000 C   0  0
    0.2851   -2.9666    0.0000 C   0  0  1  0  0  0
    1.7758   -3.1329    0.0000 O   0  0
    2.3947   -1.7666    0.0000 C   0  0
    2.8515   -0.3378    0.0000 C   0  0
    3.3692   -2.9068    0.0000 C   0  0
    1.2990   -0.7500    0.0000 C   0  0  2  0  0  0
    1.2990    0.7500    0.0000 C   0  0
    0.0000    1.5000    0.0000 C   0  0  1  0  0  0
   -1.2990    0.7500    0.0000 C   0  0
   -1.2990   -0.7500    0.0000 C   0  0
   -2.5969   -1.5137    0.0000 C   0  0
   -3.8988   -0.7687    0.0000 O   0  0
   -2.5976   -3.0137    0.0000 C   0  0
   -1.2989   -3.7643    0.0000 C   0  0
   -1.2996   -5.2651    0.0000 C   0  0
   -2.5978   -6.0166    0.0000 C   0  0
   -2.5962   -7.5166    0.0000 C   0  0
   -1.2963   -8.2652    0.0000 C   0  0
    0.0019   -7.5137    0.0000 C   0  0
    0.0002   -6.0137    0.0000 C   0  0
    0.0005   -3.0149    0.0000 O   0  0
    0.0000   -1.5000    0.0000 C   0  0  2  0  0  0
   -1.2151   -0.4213    0.0000 C   0  0
   -2.7149   -0.3978    0.0000 O   0  0
  1  2  1  0
  2  3  1  0
  2  4  2  0
  4  5  1  0
  6  5  1  6
  6  7  1  0
  7  8  1  0
  8  9  1  0
  8 10  1  0
  8 11  1  0
 11 12  1  1
 13 12  1  6
 13 14  1  0
 14 15  2  0
 15 16  1  0
 16 17  2  0
 16 18  1  0
 18 19  2  0
 19 20  1  0
 20 21  2  0
 21 22  1  0
 22 23  2  0
 23 24  1  0
 24 25  2  0
 25 20  1  0
 19 26  1  0
 27 26  1  6
 27 15  1  0
 27 11  1  0
 27  6  1  0
 13 28  1  0
 28  6  1  0
 28 29  2  0
M  END
> <Smiles>
CC(C)=CC[C@@]12OC(C)(C)[C@@H]3C[C@@H](C=C4C(=O)C=C(c5ccccc5)O[C@]431)C2=O

> <ID>
CHEMBL1958316

> <standard_value>
40240

> <IC50_uM>
40.24

> <Activity>
No

> <pIC50>
4.395342028

> <BCI>
0

$$$$

  SciTegic03012415362D

 43 48  0  0  1  0            999 V2000
    4.6780    2.9052    0.0000 C   0  0
    3.2073    2.6100    0.0000 C   0  0
    2.2166    3.7363    0.0000 C   0  0
    2.7272    1.1906    0.0000 C   0  0  2  0  0  0
    3.6011   -0.0286    0.0000 C   0  0
    2.7117   -1.2364    0.0000 C   0  0
    1.2990   -0.7500    0.0000 C   0  0  1  0  0  0
    1.4428   -2.2431    0.0000 C   0  0
    1.2990    0.7500    0.0000 C   0  0  1  0  0  0
    0.0000    1.5000    0.0000 C   0  0  1  0  0  0
    0.0000    3.0000    0.0000 C   0  0
   -1.2991    3.7500    0.0000 C   0  0
   -2.5981    3.0000    0.0000 C   0  0  2  0  0  0
   -3.8971    3.7500    0.0000 C   0  0  1  0  0  0
   -2.5981    4.5000    0.0000 C   0  0
   -3.8972    5.2500    0.0000 C   0  0
   -5.1962    6.0000    0.0000 C   0  0
   -6.4952    5.2500    0.0000 C   0  0  2  0  0  0
   -7.7935    6.0030    0.0000 O   0  0
   -7.7913    7.5038    0.0000 C   0  0
   -6.4910    8.2516    0.0000 O   0  0
   -9.0896    8.2569    0.0000 C   0  0
   -9.0874    9.7577    0.0000 C   0  0
  -10.3857   10.5108    0.0000 C   0  0
  -10.3857   12.0108    0.0000 C   0  0
  -11.6848   12.7609    0.0000 C   0  0
  -12.9838   12.0109    0.0000 C   0  0
  -14.2828   12.7609    0.0000 O   0  0
  -12.9838   10.5109    0.0000 C   0  0
  -11.6848    9.7609    0.0000 C   0  0
   -6.4952    3.7500    0.0000 C   0  0
   -6.4598    2.2504    0.0000 C   0  0
   -7.7763    4.5302    0.0000 C   0  0
   -5.1962    3.0000    0.0000 C   0  0  2  0  0  0
   -5.1962    1.5000    0.0000 C   0  0
   -3.8971    0.7500    0.0000 C   0  0
   -2.5981    1.5000    0.0000 C   0  0  2  0  0  0
   -2.5981    0.0000    0.0000 C   0  0
   -1.2990    0.7500    0.0000 C   0  0  1  0  0  0
    0.0000    0.0000    0.0000 C   0  0
   -1.2990   -0.7500    0.0000 C   0  0
    0.0000   -1.5000    0.0000 C   0  0  2  0  0  0
    0.0000   -3.0000    0.0000 O   0  0
  1  2  2  0
  2  3  1  0
  4  2  1  6
  4  5  1  0
  5  6  1  0
  6  7  1  0
  7  8  1  1
  9  7  1  1
  9  4  1  0
  9 10  1  0
 10 11  1  6
 11 12  1  0
 13 12  1  1
 13 14  1  0
 14 15  1  1
 14 16  1  0
 16 17  1  0
 17 18  1  0
 18 19  1  1
 19 20  1  0
 20 21  2  0
 20 22  1  0
 22 23  2  0
 23 24  1  0
 24 25  2  0
 25 26  1  0
 26 27  2  0
 27 28  1  0
 27 29  1  0
 29 30  2  0
 30 24  1  0
 18 31  1  0
 31 32  1  0
 31 33  1  0
 31 34  1  0
 34 14  1  0
 34 35  1  1
 35 36  1  0
 36 37  1  0
 37 13  1  0
 37 38  1  1
 37 39  1  0
 39 10  1  0
 39 40  1  6
 39 41  1  0
 41 42  1  0
 42  7  1  0
 42 43  1  1
M  END
> <Smiles>
C=C(C)[C@@H]1CC[C@@]2(C)[C@H]1[C@H]1CC[C@@H]3[C@@]4(C)CC[C@H](OC(=O)/C=C/c5ccc(O)cc5)C(C)(C)[C@@H]4CC[C@@]3(C)[C@]1(C)C[C@@H]2O

> <ID>
CHEMBL453161

> <standard_value>
41040

> <IC50_uM>
41.04

> <Activity>
No

> <pIC50>
4.386792648

> <BCI>
0

$$$$

  SciTegic03012415362D

 44 49  0  0  1  0            999 V2000
    6.4983   -0.7414    0.0000 C   0  0
    5.2003   -1.4932    0.0000 C   0  0
    5.2029   -2.9932    0.0000 C   0  0
    3.8990   -0.7455    0.0000 C   0  0
    2.6003   -1.4977    0.0000 C   0  0
    1.2990   -0.7500    0.0000 C   0  0
    1.2990    0.7500    0.0000 C   0  0
    2.5981    1.5000    0.0000 O   0  0
    0.0000    1.5000    0.0000 C   0  0
   -1.2990    0.7500    0.0000 C   0  0
   -2.5981    1.5000    0.0000 O   0  0
   -1.2990   -0.7500    0.0000 C   0  0
    0.0000   -1.5000    0.0000 C   0  0
    0.0000   -3.0000    0.0000 O   0  0
   -1.2990   -3.7500    0.0000 C   0  0  1  0  0  0
   -2.5981   -3.0000    0.0000 C   0  0
   -3.6733   -1.9297    0.0000 C   0  0
   -4.6833   -3.0387    0.0000 C   0  0  1  0  0  0
   -4.2278   -4.4679    0.0000 C   0  0
   -4.8933   -5.8123    0.0000 O   0  0
   -2.8256   -3.9670    0.0000 C   0  0  3  0  0  0
   -1.4829   -4.6510    0.0000 C   0  0
   -0.2326   -3.8208    0.0000 C   0  0
    1.1119   -4.4877    0.0000 C   0  0
    2.3616   -3.6581    0.0000 C   0  0
    1.2061   -5.9848    0.0000 C   0  0
   -3.1375   -5.4343    0.0000 O   0  0
   -1.8384   -6.1843    0.0000 C   0  0
   -0.7237   -5.1806    0.0000 C   0  0  2  0  0  0
   -3.4146   -4.9826    0.0000 C   0  0  1  0  0  0
   -4.2298   -6.2341    0.0000 C   0  0
   -3.5531   -7.5738    0.0000 O   0  0
   -4.3742   -8.8301    0.0000 C   0  0
   -5.8719   -8.7468    0.0000 O   0  0
   -3.6976  -10.1698    0.0000 C   0  0
   -4.5187  -11.4261    0.0000 C   0  0
   -3.8421  -12.7657    0.0000 C   0  0
   -4.6609  -14.0226    0.0000 C   0  0
   -3.9819  -15.3601    0.0000 C   0  0
   -2.4841  -15.4409    0.0000 C   0  0
   -1.6652  -14.1841    0.0000 C   0  0
   -2.3442  -12.8466    0.0000 C   0  0
   -2.5981   -1.5000    0.0000 C   0  0
   -3.8971   -0.7500    0.0000 O   0  0
  1  2  1  0
  2  3  1  0
  2  4  2  0
  4  5  1  0
  5  6  1  0
  6  7  2  0
  7  8  1  0
  7  9  1  0
  9 10  2  0
 10 11  1  0
 10 12  1  0
 12 13  2  0
 13  6  1  0
 13 14  1  0
 15 14  1  6
 15 16  1  0
 16 17  2  0
 18 17  1  6
 18 19  1  0
 19 20  2  0
 19 21  1  0
 21 15  1  0
 21 22  1  4
 22 23  1  0
 23 24  2  0
 24 25  1  0
 24 26  1  0
 21 27  1  0
 27 28  1  0
 29 28  1  6
 29 15  1  0
 29 30  1  0
 30 18  1  0
 30 31  1  1
 31 32  1  0
 32 33  1  0
 33 34  2  0
 33 35  1  0
 35 36  2  0
 36 37  1  0
 37 38  2  0
 38 39  1  0
 39 40  2  0
 40 41  1  0
 41 42  2  0
 42 37  1  0
 16 43  1  0
 43 12  1  0
 43 44  2  0
M  END
> <Smiles>
CC(C)=CCc1c(O)cc(O)c2c1O[C@@]13C(=C[C@H]4C(=O)C1(CC=C(C)C)OC[C@@H]3[C@H]4COC(=O)/C=C/c1ccccc1)C2=O

> <ID>
CHEMBL2336098

> <standard_value>
41400

> <IC50_uM>
41.4

> <Activity>
No

> <pIC50>
4.382999659

> <BCI>
0

$$$$

  SciTegic03012415362D

  8  7  0  0  0  0            999 V2000
    0.0007    0.0004    0.0000 C   0  0
    1.3000    0.7500    0.0000 N   0  0
    2.6000    0.0000    0.0000 N   0  0
    2.6014   -1.5008    0.0000 N   0  0
    1.3028   -2.2516    0.0000 C   0  0
    3.9014   -2.2508    0.0000 C   0  0
    5.2000   -1.5000    0.0000 C   0  0
    3.9028   -3.7508    0.0000 O   0  0
  1  2  1  0
  2  3  2  0
  3  4  1  0
  4  5  1  0
  4  6  1  0
  6  7  1  0
  6  8  2  0
M  END
> <Smiles>
C/N=N\N(C)C(C)=O

> <ID>
CHEMBL316041

> <standard_value>
42000

> <IC50_uM>
42

> <Activity>
No

> <pIC50>
4.37675071

> <BCI>
0

$$$$

  SciTegic03012415362D

 29 32  0  0  0  0            999 V2000
    7.7938   -3.0046    0.0000 C   0  0
    6.4946   -3.7543    0.0000 O   0  0
    5.1945   -3.0045    0.0000 C   0  0
    5.1969   -1.5045    0.0000 C   0  0
    3.8991   -0.7525    0.0000 C   0  0
    2.5987   -1.5004    0.0000 C   0  0
    1.2990   -0.7500    0.0000 C   0  0
    1.2990    0.7500    0.0000 C   0  0
    0.0000    1.5000    0.0000 C   0  0
   -0.3115    2.9665    0.0000 N   0  0
   -1.8032    3.1233    0.0000 C   0  0
   -2.4133    1.7530    0.0000 C   0  0
   -1.2990    0.7500    0.0000 N   0  0
   -1.2990   -0.7500    0.0000 C   0  0
   -2.5972   -1.5031    0.0000 N   0  0
   -2.5951   -3.0039    0.0000 C   0  0
   -1.2935   -3.7495    0.0000 N   0  0
   -1.2883   -5.2495    0.0000 C   0  0
   -2.5847   -6.0040    0.0000 C   0  0
   -3.8863   -5.2585    0.0000 C   0  0
   -3.8915   -3.7585    0.0000 C   0  0
   -5.1954   -3.0153    0.0000 C   0  0
   -5.2033   -1.5153    0.0000 N   0  0
   -6.4908   -3.7717    0.0000 O   0  0
    0.0000   -1.5000    0.0000 N   0  0
    2.5965   -3.0004    0.0000 C   0  0
    3.8943   -3.7525    0.0000 C   0  0
    3.8888   -5.2533    0.0000 O   0  0
    2.5875   -5.9994    0.0000 C   0  0
  1  2  1  0
  2  3  1  0
  3  4  2  0
  4  5  1  0
  5  6  2  0
  6  7  1  0
  7  8  2  0
  8  9  1  0
  9 10  2  0
 10 11  1  0
 11 12  2  0
 12 13  1  0
 13  9  1  0
 13 14  1  0
 14 15  1  0
 15 16  1  0
 16 17  2  0
 17 18  1  0
 18 19  2  0
 19 20  1  0
 20 21  2  0
 21 16  1  0
 21 22  1  0
 22 23  1  0
 22 24  2  0
 14 25  2  0
 25  7  1  0
  6 26  1  0
 26 27  2  0
 27  3  1  0
 27 28  1  0
 28 29  1  0
M  END
> <Smiles>
COc1ccc(-c2cc3nccn3c(Nc3ncccc3C(N)=O)n2)cc1OC

> <ID>
CHEMBL1190711

> <standard_value>
42252.01

> <IC50_uM>
42.25201

> <Activity>
No

> <pIC50>
4.374152626

> <BCI>
0

$$$$

  SciTegic03012415362D

 67 72  0  0  1  0            999 V2000
    4.0176   -9.9283    0.0000 C   0  0
    5.3250   -9.1928    0.0000 O   0  0
    5.3427   -7.6921    0.0000 C   0  0
    6.6490   -6.9548    0.0000 C   0  0
    6.6637   -5.4549    0.0000 C   0  0
    5.3720   -4.6922    0.0000 C   0  0
    5.3836   -3.1914    0.0000 C   0  0
    4.0900   -2.4300    0.0000 C   0  0  1  0  0  0
    2.8000   -3.1700    0.0000 C   0  0
    2.7956   -4.6700    0.0000 O   0  0
    1.5100   -2.4200    0.0000 N   0  0
    0.2100   -3.1600    0.0000 C   0  0  1  0  0  0
    0.2031   -4.6600    0.0000 C   0  0
   -1.0800   -2.4100    0.0000 C   0  0
   -2.3827   -3.1537    0.0000 O   0  0
   -1.0700   -0.9100    0.0000 N   0  0
    0.2348   -0.1701    0.0000 C   0  0
   -2.3600   -0.1500    0.0000 C   0  0  1  0  0  0
   -3.5800   -1.3300    0.0000 C   0  0
   -4.8800   -0.7900    0.0000 C   0  0
   -4.5000    0.6500    0.0000 C   0  0
   -5.5600    1.7200    0.0000 C   0  0
   -7.0000    1.3200    0.0000 C   0  0
   -7.3900   -0.1200    0.0000 C   0  0
   -6.3400   -1.1700    0.0000 C   0  0
   -7.6300    2.5700    0.0000 O   0  0
   -6.5800    3.8900    0.0000 C   0  0
   -5.0900    3.8600    0.0000 C   0  0
   -4.3200    5.1400    0.0000 C   0  0
   -5.0500    6.4600    0.0000 C   0  0
   -6.5400    6.4700    0.0000 C   0  0
   -7.3100    5.1800    0.0000 C   0  0
   -8.8108    5.1950    0.0000 O   0  0
   -9.5490    6.5017    0.0000 C   0  0  2  0  0  0
   -8.7843    7.7922    0.0000 O   0  0
   -9.5194    9.0997    0.0000 C   0  0  2  0  0  0
   -8.7516   10.3893    0.0000 C   0  0
   -7.2517   10.3700    0.0000 O   0  0
  -11.0193    9.1168    0.0000 C   0  0  1  0  0  0
  -11.7545   10.4243    0.0000 O   0  0
  -11.7841    7.8264    0.0000 C   0  0  2  0  0  0
  -13.2840    7.8435    0.0000 O   0  0
  -11.0490    6.5189    0.0000 C   0  0  1  0  0  0
  -11.8138    5.2286    0.0000 O   0  0
   -2.7000    5.1600    0.0000 C   0  0  2  0  0  0
   -2.1496    6.5554    0.0000 O   0  0
   -1.0500    3.5800    0.0000 C   0  0  1  0  0  0
    0.2400    4.3200    0.0000 C   0  0
    0.2444    5.8200    0.0000 O   0  0
    1.5300    3.5700    0.0000 N   0  0
    2.8400    4.3000    0.0000 C   0  0  2  0  0  0
    2.8537    5.7999    0.0000 C   0  0
    4.1300    3.5500    0.0000 C   0  0
    5.4327    4.2937    0.0000 O   0  0
    4.1200    2.0600    0.0000 N   0  0
    5.4200    1.3000    0.0000 C   0  0  1  0  0  0
    6.7236    2.0421    0.0000 C   0  0
    5.4100   -0.1900    0.0000 C   0  0
    6.7042   -0.9483    0.0000 O   0  0
    4.1100   -0.9300    0.0000 N   0  0
    2.8183   -0.1674    0.0000 C   0  0
   -1.0600    2.0800    0.0000 N   0  0
    0.2342    1.3217    0.0000 C   0  0
   -2.3600    1.3400    0.0000 C   0  0
   -3.6567    2.0940    0.0000 O   0  0
    4.0657   -5.4295    0.0000 C   0  0
    4.0511   -6.9295    0.0000 C   0  0
  1  2  1  0
  2  3  1  0
  3  4  2  0
  4  5  1  0
  5  6  2  0
  6  7  1  0
  8  7  1  1
  8  9  1  0
  9 10  2  0
  9 11  1  0
 11 12  1  0
 12 13  1  1
 12 14  1  0
 14 15  2  0
 14 16  1  0
 16 17  1  0
 16 18  1  0
 18 19  1  1
 19 20  1  0
 20 21  2  0
 21 22  1  0
 22 23  2  0
 23 24  1  0
 24 25  2  0
 25 20  1  0
 23 26  1  0
 26 27  1  0
 27 28  2  0
 28 29  1  0
 29 30  2  0
 30 31  1  0
 31 32  2  0
 32 27  1  0
 32 33  1  0
 34 33  1  1
 34 35  1  0
 35 36  1  0
 36 37  1  1
 37 38  1  0
 36 39  1  0
 39 40  1  6
 39 41  1  0
 41 42  1  1
 41 43  1  0
 43 34  1  0
 43 44  1  6
 29 45  1  0
 45 46  1  6
 45 47  1  0
 47 48  1  1
 48 49  2  0
 48 50  1  0
 50 51  1  0
 51 52  1  6
 51 53  1  0
 53 54  2  0
 53 55  1  0
 55 56  1  0
 56 57  1  1
 56 58  1  0
 58 59  2  0
 58 60  1  0
 60  8  1  0
 60 61  1  0
 47 62  1  0
 62 63  1  0
 62 64  1  0
 64 18  1  0
 64 65  2  0
  6 66  1  0
 66 67  2  0
 67  3  1  0
M  END
> <Smiles>
COc1ccc(C[C@H]2C(=O)N[C@@H](C)C(=O)N(C)[C@H]3Cc4ccc(cc4)Oc4cc(ccc4O[C@@H]4O[C@H](CO)[C@@H](O)[C@H](O)[C@H]4O)[C@H](O)[C@@H](C(=O)N[C@H](C)C(=O)N[C@@H](C)C(=O)N2C)N(C)C3=O)cc1

> <ID>
CHEMBL1288987

> <standard_value>
42310

> <IC50_uM>
42.31

> <Activity>
No

> <pIC50>
4.373556975

> <BCI>
0

$$$$

  SciTegic03012415362D

 27 29  0  0  0  0            999 V2000
    1.7978   -5.7203    0.0000 C   0  0
    2.5497   -4.4224    0.0000 C   0  0
    4.0497   -4.4250    0.0000 C   0  0
    1.8032   -3.1233    0.0000 C   0  0
    2.4133   -1.7530    0.0000 C   0  0
    1.2990   -0.7500    0.0000 C   0  0
    1.2990    0.7500    0.0000 N   0  0
    0.0000    1.5000    0.0000 C   0  0
    0.0000    3.0008    0.0000 C   0  0
    1.2978    3.7529    0.0000 C   0  0
    1.2954    5.2529    0.0000 C   0  0
    2.5940    6.0054    0.0000 C   0  0
    3.8947    5.2583    0.0000 F   0  0
    2.5911    7.5054    0.0000 F   0  0
    3.8915    6.7581    0.0000 F   0  0
   -0.0048    6.0009    0.0000 C   0  0
   -1.3026    5.2488    0.0000 C   0  0
   -2.6036    5.9971    0.0000 C   0  0
   -2.6069    7.4971    0.0000 F   0  0
   -3.9012    5.2447    0.0000 F   0  0
   -3.9042    6.7445    0.0000 F   0  0
   -1.3002    3.7488    0.0000 C   0  0
   -1.2990    0.7500    0.0000 C   0  0
   -1.2990   -0.7500    0.0000 C   0  0
   -2.5981   -1.5000    0.0000 O   0  0
    0.0000   -1.5000    0.0000 N   0  0
    0.3114   -2.9665    0.0000 N   0  0
  1  2  1  0
  2  3  1  0
  2  4  1  0
  4  5  1  0
  5  6  2  0
  6  7  1  0
  7  8  1  0
  8  9  1  0
  9 10  2  0
 10 11  1  0
 11 12  1  0
 12 13  1  0
 12 14  1  0
 12 15  1  0
 11 16  2  0
 16 17  1  0
 17 18  1  0
 18 19  1  0
 18 20  1  0
 18 21  1  0
 17 22  2  0
 22  9  1  0
  8 23  2  0
 23 24  1  0
 24 25  2  0
 24 26  1  0
 26  6  1  0
 26 27  1  0
 27  4  2  0
M  END
> <Smiles>
CC(C)c1cc2[nH]c(-c3cc(C(F)(F)F)cc(C(F)(F)F)c3)cc(=O)n2n1

> <ID>
CHEMBL4861810

> <standard_value>
42900

> <IC50_uM>
42.9

> <Activity>
No

> <pIC50>
4.367542708

> <BCI>
0

$$$$

  SciTegic03012415362D

137149  0  0  1  0            999 V2000
  -17.7771  -34.7174    0.0000 C   0  0
  -16.2995  -34.4587    0.0000 C   0  0
  -15.7836  -33.0494    0.0000 C   0  0  3  0  0  0
  -16.7461  -31.8988    0.0000 C   0  0
  -17.2613  -33.3074    0.0000 O   0  0
  -14.3053  -32.7905    0.0000 C   0  0
  -13.7894  -31.3812    0.0000 C   0  0
  -12.3110  -31.1223    0.0000 C   0  0
  -11.7951  -29.7130    0.0000 C   0  0
  -12.7605  -28.5638    0.0000 C   0  0
  -14.2377  -28.8241    0.0000 O   0  0
  -10.3168  -29.4542    0.0000 C   0  0
   -9.3544  -30.6047    0.0000 O   0  0
   -9.8009  -28.0448    0.0000 O   0  0
   -8.3225  -27.7860    0.0000 C   0  0  1  0  0  0
   -7.8049  -26.3780    0.0000 C   0  0  2  0  0  0
   -8.7681  -25.2271    0.0000 O   0  0
  -10.2467  -25.4849    0.0000 C   0  0
  -11.2099  -24.3340    0.0000 C   0  0  1  0  0  0
  -10.6922  -22.9261    0.0000 O   0  0
  -11.6525  -21.7738    0.0000 C   0  0  1  0  0  0
  -11.1317  -20.3662    0.0000 O   0  0
   -9.6524  -20.1126    0.0000 C   0  0
   -8.6941  -21.2665    0.0000 O   0  0
   -9.1316  -18.7051    0.0000 C   0  0  2  0  0  0
  -10.4346  -19.4481    0.0000 C   0  0
  -11.7296  -18.6911    0.0000 C   0  0
  -11.7216  -17.1912    0.0000 C   0  0
  -13.0067  -17.9647    0.0000 C   0  0
  -11.6783  -15.6918    0.0000 C   0  0
  -10.4185  -16.4481    0.0000 C   0  0
   -9.1235  -17.2051    0.0000 C   0  0  1  0  0  0
   -7.8205  -16.4621    0.0000 C   0  0
   -7.8124  -14.9621    0.0000 C   0  0
   -6.5094  -14.2191    0.0000 C   0  0
   -5.2144  -14.9760    0.0000 C   0  0  2  0  0  0
   -3.9113  -14.2330    0.0000 C   0  0  1  0  0  0
   -5.2063  -13.4760    0.0000 C   0  0
   -3.9033  -12.7330    0.0000 C   0  0
   -2.6002  -11.9900    0.0000 C   0  0
   -1.3053  -12.7470    0.0000 C   0  0  2  0  0  0
   -0.0030  -12.0008    0.0000 O   0  0
    1.2947  -12.7547    0.0000 C   0  0  2  0  0  0
    2.5943  -12.0056    0.0000 O   0  0
    3.8929  -12.7564    0.0000 C   0  0  2  0  0  0
    5.1916  -12.0042    0.0000 C   0  0
    5.1904  -10.5034    0.0000 O   0  0
    6.4891   -9.7511    0.0000 C   0  0  2  0  0  0
    7.7878  -10.5019    0.0000 O   0  0
    9.0873   -9.7527    0.0000 C   0  0
    9.0882   -8.2527    0.0000 C   0  0  2  0  0  0
   10.3877   -7.5035    0.0000 O   0  0
    7.7897   -7.5019    0.0000 C   0  0  2  0  0  0
    7.7906   -6.0019    0.0000 O   0  0
    6.4902   -8.2511    0.0000 C   0  0  1  0  0  0
    5.1924   -7.4972    0.0000 O   0  0
    5.1956   -5.9963    0.0000 C   0  0  2  0  0  0
    6.4977   -5.2516    0.0000 O   0  0
    6.5039   -3.7516    0.0000 C   0  0
    5.2079   -2.9963    0.0000 C   0  0  1  0  0  0
    5.2141   -1.4963    0.0000 O   0  0
    3.9058   -3.7409    0.0000 C   0  0  2  0  0  0
    2.6099   -2.9856    0.0000 O   0  0
    3.8996   -5.2409    0.0000 C   0  0  1  0  0  0
    2.5975   -5.9855    0.0000 O   0  0
    3.8919  -14.2564    0.0000 C   0  0  1  0  0  0
    5.1905  -15.0073    0.0000 O   0  0
    2.5924  -15.0056    0.0000 C   0  0  2  0  0  0
    2.5914  -16.5056    0.0000 O   0  0
    1.2938  -14.2548    0.0000 C   0  0  1  0  0  0
   -0.0057  -15.0040    0.0000 O   0  0
   -1.3133  -14.2469    0.0000 C   0  0
   -1.3568  -15.7463    0.0000 C   0  0
   -0.0281  -13.4735    0.0000 C   0  0
   -2.6164  -14.9900    0.0000 C   0  0  2  0  0  0
   -2.6244  -16.4899    0.0000 C   0  0
   -3.9274  -17.2329    0.0000 C   0  0
   -5.2224  -16.4760    0.0000 C   0  0  2  0  0  0
   -5.2305  -17.9760    0.0000 C   0  0
   -6.5255  -17.2190    0.0000 C   0  0  1  0  0  0
   -6.5174  -15.7190    0.0000 C   0  0
   -6.5335  -18.7190    0.0000 C   0  0
   -7.8366  -19.4620    0.0000 C   0  0  1  0  0  0
   -7.8446  -20.9620    0.0000 O   0  0
  -13.1306  -22.0294    0.0000 C   0  0  2  0  0  0
  -14.0892  -20.8746    0.0000 O   0  0
  -15.5687  -21.1263    0.0000 C   0  0  2  0  0  0
  -16.0874  -22.5339    0.0000 O   0  0
  -17.5656  -22.7885    0.0000 C   0  0  1  0  0  0
  -18.0842  -24.1960    0.0000 C   0  0
  -18.5253  -21.6356    0.0000 C   0  0  2  0  0  0
  -20.0038  -21.8935    0.0000 O   0  0
  -20.5207  -23.3025    0.0000 C   0  0  2  0  0  0
  -19.5571  -24.4521    0.0000 O   0  0
  -20.0708  -25.8614    0.0000 C   0  0
  -21.5481  -26.1211    0.0000 C   0  0  1  0  0  0
  -22.0619  -27.5304    0.0000 O   0  0
  -22.5118  -24.9716    0.0000 C   0  0  2  0  0  0
  -23.9894  -25.2345    0.0000 O   0  0
  -24.5014  -26.6453    0.0000 C   0  0  2  0  0  0
  -23.5338  -27.7916    0.0000 O   0  0
  -24.0427  -29.2027    0.0000 C   0  0
  -25.5191  -29.4675    0.0000 C   0  0  1  0  0  0
  -26.0280  -30.8785    0.0000 O   0  0
  -26.4867  -28.3213    0.0000 C   0  0  2  0  0  0
  -27.9631  -28.5861    0.0000 O   0  0
  -25.9778  -26.9102    0.0000 C   0  0  1  0  0  0
  -26.9454  -25.7640    0.0000 O   0  0
  -21.9980  -23.5623    0.0000 C   0  0  1  0  0  0
  -22.9617  -22.4128    0.0000 O   0  0
  -18.0067  -20.2281    0.0000 C   0  0  1  0  0  0
  -18.9663  -19.0753    0.0000 O   0  0
  -16.5284  -19.9735    0.0000 C   0  0  1  0  0  0
  -16.0099  -18.5660    0.0000 O   0  0
  -13.6483  -23.4373    0.0000 C   0  0  1  0  0  0
  -15.1264  -23.6928    0.0000 O   0  0
  -12.6880  -24.5895    0.0000 C   0  0  2  0  0  0
  -13.2057  -25.9973    0.0000 O   0  0
   -6.3268  -26.1225    0.0000 O   0  0
   -5.3664  -27.2748    0.0000 C   0  0  1  0  0  0
   -3.8883  -27.0192    0.0000 C   0  0
   -5.8841  -28.6826    0.0000 C   0  0  2  0  0  0
   -4.9237  -29.8349    0.0000 O   0  0
   -7.3622  -28.9382    0.0000 C   0  0  1  0  0  0
   -7.8772  -30.3479    0.0000 O   0  0
   -6.9147  -31.4994    0.0000 C   0  0
   -5.4371  -31.2412    0.0000 O   0  0
   -7.4297  -32.9091    0.0000 C   0  0
   -8.9074  -33.1672    0.0000 C   0  0
   -6.4672  -34.0606    0.0000 C   0  0
   -6.9823  -35.4703    0.0000 C   0  0
   -6.0197  -36.6218    0.0000 C   0  0
   -6.5348  -38.0314    0.0000 C   0  0  1  0  0  0
   -8.0124  -38.2896    0.0000 C   0  0
   -5.0572  -37.7733    0.0000 O   0  0
   -5.5722  -39.1829    0.0000 C   0  0
   -6.0870  -40.5918    0.0000 C   0  0
  1  2  2  0
  2  3  1  0
  3  4  1  4
  3  5  1  0
  3  6  1  0
  6  7  1  0
  7  8  1  0
  8  9  2  0
  9 10  1  0
 10 11  1  0
  9 12  1  0
 12 13  2  0
 12 14  1  0
 15 14  1  1
 15 16  1  0
 16 17  1  6
 17 18  1  0
 19 18  1  6
 19 20  1  0
 20 21  1  0
 21 22  1  6
 22 23  1  0
 23 24  2  0
 25 23  1  6
 25 26  1  0
 26 27  1  0
 27 28  1  0
 28 29  1  0
 28 30  1  0
 28 31  1  0
 32 31  1  1
 32 25  1  0
 32 33  1  0
 33 34  2  0
 34 35  1  0
 36 35  1  6
 36 37  1  0
 37 38  1  6
 37 39  1  0
 39 40  1  0
 40 41  1  0
 41 42  1  6
 43 42  1  6
 43 44  1  0
 44 45  1  0
 45 46  1  6
 46 47  1  0
 48 47  1  1
 48 49  1  0
 49 50  1  0
 50 51  1  0
 51 52  1  1
 51 53  1  0
 53 54  1  1
 53 55  1  0
 55 48  1  0
 55 56  1  6
 57 56  1  1
 57 58  1  0
 58 59  1  0
 59 60  1  0
 60 61  1  6
 60 62  1  0
 62 63  1  1
 62 64  1  0
 64 57  1  0
 64 65  1  6
 45 66  1  0
 66 67  1  1
 66 68  1  0
 68 69  1  6
 68 70  1  0
 70 43  1  0
 70 71  1  1
 41 72  1  0
 72 73  1  0
 72 74  1  0
 72 75  1  0
 75 37  1  0
 75 76  1  6
 76 77  1  0
 77 78  1  0
 78 36  1  0
 78 79  1  6
 78 80  1  0
 80 33  1  0
 80 81  1  1
 80 82  1  0
 82 83  1  0
 83 25  1  0
 83 84  1  1
 21 85  1  0
 85 86  1  1
 87 86  1  6
 87 88  1  0
 88 89  1  0
 89 90  1  1
 89 91  1  0
 91 92  1  6
 93 92  1  6
 93 94  1  0
 94 95  1  0
 95 96  1  0
 96 97  1  1
 96 98  1  0
 98 99  1  6
100 99  1  6
100101  1  0
101102  1  0
102103  1  0
103104  1  1
103105  1  0
105106  1  6
105107  1  0
107100  1  0
107108  1  1
 98109  1  0
109 93  1  0
109110  1  1
 91111  1  0
111112  1  1
111113  1  0
113 87  1  0
113114  1  1
 85115  1  0
115116  1  6
115117  1  0
117 19  1  0
117118  1  1
 16119  1  0
119120  1  0
120121  1  1
120122  1  0
122123  1  6
122124  1  0
124 15  1  0
124125  1  1
125126  1  0
126127  2  0
126128  1  0
128129  1  0
128130  2  0
130131  1  0
131132  1  0
132133  1  0
133134  1  6
133135  1  0
133136  1  0
136137  2  0
M  END
> <Smiles>
C=CC(C)(O)CC/C=C(\CO)C(=O)O[C@H]1[C@H](OC[C@H]2O[C@@H](OC(=O)[C@]34CCC(C)(C)C[C@H]3C3=CC[C@@H]5[C@@]6(C)CC[C@H](O[C@@H]7O[C@H](CO[C@@H]8OC[C@H](O)[C@H](O)[C@H]8O[C@@H]8OC[C@@H](O)[C@H](O)[C@H]8O)[C@@H
](O)[C@H](O)[C@H]7O)C(C)(C)[C@@H]6CC[C@@]5(C)[C@]3(C)C[C@H]4O)[C@H](O[C@@H]3O[C@@H](C)[C@H](O[C@@H]4OC[C@@H](O)[C@H](O[C@@H]5OC[C@@H](O)[C@H](O)[C@H]5O)[C@H]4O)[C@@H](O)[C@H]3O)[C@@H](O)[C@@H]2O)O[C@@
H](C)[C@H](O)[C@H]1OC(=O)/C(C)=C/CC[C@@](C)(O)C=C

> <ID>
CHEMBL3357152

> <standard_value>
43100

> <IC50_uM>
43.1

> <Activity>
No

> <pIC50>
4.36552273

> <BCI>
0

$$$$

  SciTegic03012415362D

 27 30  0  0  0  0            999 V2000
   -3.9232   -1.7735    0.0000 O   0  0
   -5.0098   -2.8075    0.0000 C   0  0
   -4.6570   -4.2663    0.0000 N   0  0
   -3.2175   -4.6910    0.0000 C   0  0
   -2.8628   -6.1485    0.0000 C   0  0
   -1.4233   -6.5700    0.0000 C   0  0
   -0.3384   -5.5341    0.0000 C   0  0
    1.1012   -5.9552    0.0000 Cl  0  0
   -0.6928   -4.0817    0.0000 C   0  0
    0.3114   -2.9665    0.0000 C   0  0
    1.8032   -3.1233    0.0000 N   0  0
    2.4133   -1.7530    0.0000 N   0  0
    1.2990   -0.7500    0.0000 C   0  0
    1.2990    0.7500    0.0000 C   0  0
    2.5981    1.5000    0.0000 Cl  0  0
    0.0000    1.5000    0.0000 C   0  0
   -1.2990    0.7500    0.0000 C   0  0
   -1.2990   -0.7500    0.0000 C   0  0
    0.0000   -1.5000    0.0000 N   0  0
   -2.1327   -3.6551    0.0000 C   0  0
   -6.4493   -2.3828    0.0000 C   0  0
   -6.8041   -0.9253    0.0000 C   0  0
   -8.2436   -0.5037    0.0000 C   0  0
   -9.3285   -1.5396    0.0000 C   0  0
   -8.9738   -2.9970    0.0000 C   0  0
  -10.0587   -4.0329    0.0000 Cl  0  0
   -7.5343   -3.4186    0.0000 C   0  0
  1  2  2  0
  2  3  1  0
  3  4  1  0
  4  5  2  0
  5  6  1  0
  6  7  2  0
  7  8  1  0
  7  9  1  0
  9 10  1  0
 10 11  2  0
 11 12  1  0
 12 13  2  0
 13 14  1  0
 14 15  1  0
 14 16  2  0
 16 17  1  0
 17 18  2  0
 18 19  1  0
 19 10  1  0
 19 13  1  0
  9 20  2  0
 20  4  1  0
  2 21  1  0
 21 22  2  0
 22 23  1  0
 23 24  2  0
 24 25  1  0
 25 26  1  0
 25 27  2  0
 27 21  1  0
M  END
> <Smiles>
O=C(Nc1ccc(Cl)c(-c2nnc3c(Cl)cccn23)c1)c1cccc(Cl)c1

> <ID>
CHEMBL4633406

> <standard_value>
43100

> <IC50_uM>
43.1

> <Activity>
No

> <pIC50>
4.36552273

> <BCI>
0

$$$$

  SciTegic03012415362D

 37 41  0  0  1  0            999 V2000
    6.4983   -0.7414    0.0000 C   0  0
    5.2003   -1.4932    0.0000 C   0  0
    5.2029   -2.9932    0.0000 C   0  0
    3.8990   -0.7455    0.0000 C   0  0
    2.6003   -1.4977    0.0000 C   0  0
    1.2990   -0.7500    0.0000 C   0  0
    1.2990    0.7500    0.0000 C   0  0
    2.5981    1.5000    0.0000 O   0  0
    0.0000    1.5000    0.0000 C   0  0
   -1.2990    0.7500    0.0000 C   0  0
   -2.5981    1.5000    0.0000 O   0  0
   -1.2990   -0.7500    0.0000 C   0  0
    0.0000   -1.5000    0.0000 C   0  0
    0.0000   -3.0000    0.0000 O   0  0
   -1.2990   -3.7500    0.0000 C   0  0  1  0  0  0
   -2.5981   -3.0000    0.0000 C   0  0
   -3.6733   -1.9297    0.0000 C   0  0
   -4.6833   -3.0387    0.0000 C   0  0  1  0  0  0
   -4.2278   -4.4679    0.0000 C   0  0
   -4.8933   -5.8123    0.0000 O   0  0
   -2.8256   -3.9670    0.0000 C   0  0  3  0  0  0
   -1.4829   -4.6510    0.0000 C   0  0
   -0.2326   -3.8208    0.0000 C   0  0
    1.1119   -4.4877    0.0000 C   0  0
    2.3616   -3.6581    0.0000 C   0  0
    1.2061   -5.9848    0.0000 C   0  0
   -3.1375   -5.4343    0.0000 O   0  0
   -1.8384   -6.1843    0.0000 C   0  0
   -0.7237   -5.1806    0.0000 C   0  0  2  0  0  0
   -3.4146   -4.9826    0.0000 C   0  0  1  0  0  0
   -4.2298   -6.2341    0.0000 C   0  0
   -3.5531   -7.5738    0.0000 O   0  0
   -4.3742   -8.8301    0.0000 C   0  0
   -3.6976  -10.1698    0.0000 C   0  0
   -4.5182  -11.4254    0.0000 O   0  0
   -2.5981   -1.5000    0.0000 C   0  0
   -3.8971   -0.7500    0.0000 O   0  0
  1  2  1  0
  2  3  1  0
  2  4  2  0
  4  5  1  0
  5  6  1  0
  6  7  2  0
  7  8  1  0
  7  9  1  0
  9 10  2  0
 10 11  1  0
 10 12  1  0
 12 13  2  0
 13  6  1  0
 13 14  1  0
 15 14  1  6
 15 16  1  0
 16 17  2  0
 18 17  1  6
 18 19  1  0
 19 20  2  0
 19 21  1  0
 21 15  1  0
 21 22  1  4
 22 23  1  0
 23 24  2  0
 24 25  1  0
 24 26  1  0
 21 27  1  0
 27 28  1  0
 29 28  1  6
 29 15  1  0
 29 30  1  0
 30 18  1  0
 30 31  1  1
 31 32  1  0
 32 33  1  0
 33 34  1  0
 34 35  1  0
 16 36  1  0
 36 12  1  0
 36 37  2  0
M  END
> <Smiles>
CC(C)=CCc1c(O)cc(O)c2c1O[C@@]13C(=C[C@H]4C(=O)C1(CC=C(C)C)OC[C@@H]3[C@H]4COCCO)C2=O

> <ID>
CHEMBL2336092

> <standard_value>
43200

> <IC50_uM>
43.2

> <Activity>
No

> <pIC50>
4.364516253

> <BCI>
0

$$$$

  SciTegic03012415362D

 24 26  0  0  1  0            999 V2000
    3.8983   -0.7459    0.0000 C   0  0
    2.6003   -1.4977    0.0000 C   0  0
    2.6030   -2.9977    0.0000 C   0  0
    1.2990   -0.7500    0.0000 C   0  0
    1.2990    0.7500    0.0000 C   0  0
    0.0000    1.5000    0.0000 C   0  0
    0.0000    3.0000    0.0000 O   0  0
   -1.2990    0.7500    0.0000 C   0  0
   -1.2990   -0.7500    0.0000 C   0  0
   -2.5981   -1.5000    0.0000 C   0  0
   -3.8971   -0.7500    0.0000 C   0  0
   -3.8971    0.7500    0.0000 C   0  0  1  0  0  0
   -5.1962    1.5000    0.0000 C   0  0  1  0  0  0
   -6.4764    2.2816    0.0000 C   0  0
   -5.1597    0.0200    0.0000 C   0  0
   -6.4199   -0.7936    0.0000 O   0  0
   -5.1962    3.0000    0.0000 C   0  0  1  0  0  0
   -6.4952    3.7500    0.0000 O   0  0
   -3.8971    3.7500    0.0000 C   0  0
   -2.5981    3.0000    0.0000 C   0  0
   -2.5981    1.5000    0.0000 C   0  0  2  0  0  0
   -1.2990    2.2500    0.0000 C   0  0
    0.0000   -1.5000    0.0000 C   0  0
    0.0000   -3.0000    0.0000 O   0  0
  1  2  1  0
  2  3  1  0
  2  4  1  0
  4  5  2  0
  5  6  1  0
  6  7  2  0
  6  8  1  0
  8  9  2  0
  9 10  1  0
 10 11  1  0
 12 11  1  1
 12 13  1  0
 13 14  1  6
 13 15  1  0
 15 16  1  0
 13 17  1  0
 17 18  1  1
 17 19  1  0
 19 20  1  0
 20 21  1  0
 21  8  1  0
 21 12  1  0
 21 22  1  1
  9 23  1  0
 23  4  1  0
 23 24  2  0
M  END
> <Smiles>
CC(C)C1=CC(=O)C2=C(CC[C@H]3[C@@](C)(CO)[C@@H](O)CC[C@]23C)C1=O

> <ID>
CHEMBL3799034

> <standard_value>
43610

> <IC50_uM>
43.61

> <Activity>
No

> <pIC50>
4.360413913

> <BCI>
0

$$$$

  SciTegic03012415362D

114125  0  0  1  0            999 V2000
    3.8398  -24.7264    0.0000 C   0  0
    2.5393  -25.4740    0.0000 C   0  0
    1.2405  -24.7219    0.0000 C   0  0  3  0  0  0
    1.2429  -23.2219    0.0000 C   0  0
    2.5407  -23.9737    0.0000 O   0  0
   -0.0606  -25.4698    0.0000 C   0  0
   -1.3594  -24.7178    0.0000 C   0  0
   -2.6606  -25.4657    0.0000 C   0  0
   -3.9594  -24.7136    0.0000 C   0  0
   -3.9539  -23.2128    0.0000 C   0  0
   -2.6526  -22.4667    0.0000 O   0  0
   -5.2606  -25.4616    0.0000 C   0  0
   -5.2630  -26.9615    0.0000 O   0  0
   -6.5594  -24.7095    0.0000 O   0  0
   -7.8606  -25.4574    0.0000 C   0  0
   -9.1594  -24.7053    0.0000 C   0  0  1  0  0  0
   -9.1544  -23.2053    0.0000 O   0  0
  -10.4509  -22.4509    0.0000 C   0  0  1  0  0  0
  -10.4429  -20.9501    0.0000 O   0  0
   -9.1396  -20.2059    0.0000 C   0  0
   -7.8444  -20.9624    0.0000 O   0  0
   -9.1316  -18.7051    0.0000 C   0  0  2  0  0  0
  -10.4346  -19.4481    0.0000 C   0  0
  -11.7296  -18.6911    0.0000 C   0  0
  -11.7216  -17.1912    0.0000 C   0  0
  -13.0067  -17.9647    0.0000 C   0  0
  -11.6783  -15.6918    0.0000 C   0  0
  -10.4185  -16.4481    0.0000 C   0  0
   -9.1235  -17.2051    0.0000 C   0  0  1  0  0  0
   -7.8205  -16.4621    0.0000 C   0  0
   -7.8124  -14.9621    0.0000 C   0  0
   -6.5094  -14.2191    0.0000 C   0  0
   -5.2144  -14.9760    0.0000 C   0  0  2  0  0  0
   -3.9113  -14.2330    0.0000 C   0  0  1  0  0  0
   -5.2063  -13.4760    0.0000 C   0  0
   -3.9033  -12.7330    0.0000 C   0  0
   -2.6002  -11.9900    0.0000 C   0  0
   -1.3053  -12.7470    0.0000 C   0  0  2  0  0  0
   -0.0030  -12.0008    0.0000 O   0  0
    1.2947  -12.7547    0.0000 C   0  0  2  0  0  0
    2.5943  -12.0056    0.0000 O   0  0
    3.8929  -12.7564    0.0000 C   0  0  2  0  0  0
    5.1916  -12.0042    0.0000 C   0  0
    5.1904  -10.5034    0.0000 O   0  0
    6.4891   -9.7511    0.0000 C   0  0  2  0  0  0
    7.7878  -10.5019    0.0000 O   0  0
    9.0873   -9.7527    0.0000 C   0  0
    9.0882   -8.2527    0.0000 C   0  0  2  0  0  0
   10.3877   -7.5035    0.0000 O   0  0
    7.7897   -7.5019    0.0000 C   0  0  2  0  0  0
    7.7906   -6.0019    0.0000 O   0  0
    6.4902   -8.2511    0.0000 C   0  0  1  0  0  0
    5.1924   -7.4972    0.0000 O   0  0
    5.1956   -5.9963    0.0000 C   0  0  2  0  0  0
    6.4977   -5.2516    0.0000 O   0  0
    6.5039   -3.7516    0.0000 C   0  0
    5.2079   -2.9963    0.0000 C   0  0  1  0  0  0
    5.2141   -1.4963    0.0000 O   0  0
    3.9058   -3.7409    0.0000 C   0  0  2  0  0  0
    2.6099   -2.9856    0.0000 O   0  0
    3.8996   -5.2409    0.0000 C   0  0  1  0  0  0
    2.5975   -5.9855    0.0000 O   0  0
    3.8919  -14.2564    0.0000 C   0  0  1  0  0  0
    5.1905  -15.0073    0.0000 O   0  0
    2.5924  -15.0056    0.0000 C   0  0  2  0  0  0
    2.5914  -16.5056    0.0000 O   0  0
    1.2938  -14.2548    0.0000 C   0  0  1  0  0  0
   -0.0057  -15.0040    0.0000 O   0  0
   -1.3133  -14.2469    0.0000 C   0  0
   -1.3568  -15.7463    0.0000 C   0  0
   -0.0281  -13.4735    0.0000 C   0  0
   -2.6164  -14.9900    0.0000 C   0  0  2  0  0  0
   -2.6244  -16.4899    0.0000 C   0  0
   -3.9274  -17.2329    0.0000 C   0  0
   -5.2224  -16.4760    0.0000 C   0  0  2  0  0  0
   -5.2305  -17.9760    0.0000 C   0  0
   -6.5255  -17.2190    0.0000 C   0  0  1  0  0  0
   -6.5174  -15.7190    0.0000 C   0  0
   -6.5335  -18.7190    0.0000 C   0  0
   -7.8366  -19.4620    0.0000 C   0  0
  -11.7524  -23.1967    0.0000 C   0  0  2  0  0  0
  -13.0482  -22.4393    0.0000 O   0  0
  -14.3524  -23.1820    0.0000 C   0  0  2  0  0  0
  -14.3584  -24.6820    0.0000 O   0  0
  -15.6604  -25.4269    0.0000 C   0  0  1  0  0  0
  -15.6663  -26.9269    0.0000 C   0  0
  -16.9564  -24.6717    0.0000 C   0  0  2  0  0  0
  -18.2576  -25.4197    0.0000 O   0  0
  -18.2614  -26.9205    0.0000 C   0  0  2  0  0  0
  -16.9627  -27.6713    0.0000 O   0  0
  -16.9635  -29.1713    0.0000 C   0  0
  -18.2629  -29.9206    0.0000 C   0  0  1  0  0  0
  -18.2636  -31.4206    0.0000 O   0  0
  -19.5616  -29.1700    0.0000 C   0  0  2  0  0  0
  -20.8601  -29.9224    0.0000 O   0  0
  -20.8588  -31.4232    0.0000 C   0  0  2  0  0  0
  -19.5575  -32.1695    0.0000 O   0  0
  -19.5530  -33.6695    0.0000 C   0  0
  -20.8499  -34.4233    0.0000 C   0  0  1  0  0  0
  -20.8454  -35.9233    0.0000 O   0  0
  -22.1511  -33.6772    0.0000 C   0  0  2  0  0  0
  -23.4479  -34.4310    0.0000 O   0  0
  -22.1555  -32.1772    0.0000 C   0  0  1  0  0  0
  -23.4568  -31.4310    0.0000 O   0  0
  -19.5608  -27.6700    0.0000 C   0  0  1  0  0  0
  -20.8595  -26.9194    0.0000 O   0  0
  -16.9505  -23.1718    0.0000 C   0  0  1  0  0  0
  -18.2466  -22.4166    0.0000 O   0  0
  -15.6485  -22.4269    0.0000 C   0  0  1  0  0  0
  -15.6426  -20.9269    0.0000 O   0  0
  -11.7574  -24.6967    0.0000 C   0  0  1  0  0  0
  -13.0590  -25.4424    0.0000 O   0  0
  -10.4609  -25.4510    0.0000 C   0  0  2  0  0  0
  -10.4659  -26.9510    0.0000 O   0  0
  1  2  2  0
  2  3  1  0
  3  4  1  4
  3  5  1  0
  3  6  1  0
  6  7  1  0
  7  8  1  0
  8  9  2  0
  9 10  1  0
 10 11  1  0
  9 12  1  0
 12 13  2  0
 12 14  1  0
 14 15  1  0
 16 15  1  6
 16 17  1  0
 17 18  1  0
 18 19  1  6
 19 20  1  0
 20 21  2  0
 22 20  1  6
 22 23  1  0
 23 24  1  0
 24 25  1  0
 25 26  1  0
 25 27  1  0
 25 28  1  0
 29 28  1  1
 29 22  1  0
 29 30  1  0
 30 31  2  0
 31 32  1  0
 33 32  1  6
 33 34  1  0
 34 35  1  6
 34 36  1  0
 36 37  1  0
 37 38  1  0
 38 39  1  6
 40 39  1  6
 40 41  1  0
 41 42  1  0
 42 43  1  6
 43 44  1  0
 45 44  1  1
 45 46  1  0
 46 47  1  0
 47 48  1  0
 48 49  1  1
 48 50  1  0
 50 51  1  1
 50 52  1  0
 52 45  1  0
 52 53  1  6
 54 53  1  1
 54 55  1  0
 55 56  1  0
 56 57  1  0
 57 58  1  6
 57 59  1  0
 59 60  1  1
 59 61  1  0
 61 54  1  0
 61 62  1  6
 42 63  1  0
 63 64  1  1
 63 65  1  0
 65 66  1  6
 65 67  1  0
 67 40  1  0
 67 68  1  1
 38 69  1  0
 69 70  1  0
 69 71  1  0
 69 72  1  0
 72 34  1  0
 72 73  1  6
 73 74  1  0
 74 75  1  0
 75 33  1  0
 75 76  1  6
 75 77  1  0
 77 30  1  0
 77 78  1  1
 77 79  1  0
 79 80  1  0
 80 22  1  0
 18 81  1  0
 81 82  1  1
 83 82  1  6
 83 84  1  0
 84 85  1  0
 85 86  1  1
 85 87  1  0
 87 88  1  6
 89 88  1  6
 89 90  1  0
 90 91  1  0
 91 92  1  0
 92 93  1  1
 92 94  1  0
 94 95  1  6
 96 95  1  6
 96 97  1  0
 97 98  1  0
 98 99  1  0
 99100  1  1
 99101  1  0
101102  1  6
101103  1  0
103 96  1  0
103104  1  1
 94105  1  0
105 89  1  0
105106  1  1
 87107  1  0
107108  1  1
107109  1  0
109 83  1  0
109110  1  1
 81111  1  0
111112  1  6
111113  1  0
113 16  1  0
113114  1  1
M  END
> <Smiles>
C=CC(C)(O)CC/C=C(\CO)C(=O)OC[C@H]1O[C@@H](OC(=O)[C@]23CCC(C)(C)C[C@H]2C2=CC[C@@H]4[C@@]5(C)CC[C@H](O[C@@H]6O[C@H](CO[C@@H]7OC[C@H](O)[C@H](O)[C@H]7O[C@@H]7OC[C@@H](O)[C@H](O)[C@H]7O)[C@@H](O)[C@H](O)[
C@H]6O)C(C)(C)[C@@H]5CC[C@@]4(C)[C@]2(C)CC3)[C@H](O[C@@H]2O[C@@H](C)[C@H](O[C@@H]3OC[C@@H](O)[C@H](O[C@@H]4OC[C@@H](O)[C@H](O)[C@H]4O)[C@H]3O)[C@@H](O)[C@H]2O)[C@@H](O)[C@@H]1O

> <ID>
CHEMBL3357149

> <standard_value>
44460

> <IC50_uM>
44.46

> <Activity>
No

> <pIC50>
4.352030542

> <BCI>
0

$$$$

  SciTegic03012415362D

 21 23  0  0  0  0            999 V2000
    4.8817   -2.5602    0.0000 C   0  0
    3.8794   -1.4442    0.0000 C   0  0
    2.4133   -1.7530    0.0000 N   0  0
    1.2990   -0.7500    0.0000 C   0  0
    1.2990    0.7500    0.0000 C   0  0
    0.0000    1.5000    0.0000 C   0  0
   -0.0031    3.0008    0.0000 O   0  0
   -1.3039    3.7494    0.0000 C   0  0
   -1.3070    5.2502    0.0000 C   0  0
   -2.6071    5.9984    0.0000 C   0  0
   -0.0093    6.0025    0.0000 C   0  0
   -1.2990    0.7500    0.0000 C   0  0
   -1.2990   -0.7500    0.0000 C   0  0
    0.0000   -1.5000    0.0000 C   0  0
    0.3114   -2.9665    0.0000 C   0  0
   -0.5701   -4.1788    0.0000 C   0  0
    0.0400   -5.5491    0.0000 C   0  0
    1.5318   -5.7059    0.0000 N   0  0
    2.4135   -4.4923    0.0000 C   0  0
    3.9053   -4.6488    0.0000 C   0  0
    1.8032   -3.1233    0.0000 C   0  0
  1  2  1  0
  2  3  1  0
  3  4  1  0
  4  5  2  0
  5  6  1  0
  6  7  1  0
  7  8  1  0
  8  9  1  0
  9 10  1  0
  9 11  1  0
  6 12  2  0
 12 13  1  0
 13 14  2  0
 14  4  1  0
 14 15  1  0
 15 16  2  0
 16 17  1  0
 17 18  2  0
 18 19  1  0
 19 20  1  0
 19 21  2  0
 21 15  1  0
 21  3  1  0
M  END
> <Smiles>
CCn1c2cc(OCC(C)C)ccc2c2ccnc(C)c21

> <ID>
CHEMBL2314906

> <standard_value>
44600

> <IC50_uM>
44.6

> <Activity>
No

> <pIC50>
4.350665141

> <BCI>
0

$$$$

  SciTegic03012415362D

 31 34  0  0  0  0            999 V2000
  -11.1230    0.3398    0.0000 C   0  0
  -10.7688   -1.1178    0.0000 S   0  0
  -11.8543   -2.1529    0.0000 O   0  0
  -12.2081   -0.6955    0.0000 O   0  0
   -9.3285   -1.5396    0.0000 C   0  0
   -8.9738   -2.9971    0.0000 C   0  0
   -7.5343   -3.4186    0.0000 C   0  0
   -6.4493   -2.3828    0.0000 C   0  0
   -5.0098   -2.8075    0.0000 C   0  0
   -3.9232   -1.7735    0.0000 O   0  0
   -4.6570   -4.2663    0.0000 N   0  0
   -3.2175   -4.6910    0.0000 C   0  0
   -2.8628   -6.1485    0.0000 C   0  0
   -1.4233   -6.5700    0.0000 C   0  0
   -0.3384   -5.5341    0.0000 C   0  0
    1.1012   -5.9552    0.0000 Cl  0  0
   -0.6928   -4.0817    0.0000 C   0  0
    0.3114   -2.9665    0.0000 C   0  0
    1.8032   -3.1233    0.0000 N   0  0
    2.4133   -1.7530    0.0000 N   0  0
    1.2990   -0.7500    0.0000 C   0  0
    1.2990    0.7500    0.0000 C   0  0
    2.5981    1.5000    0.0000 Cl  0  0
    0.0000    1.5000    0.0000 C   0  0
   -1.2990    0.7500    0.0000 C   0  0
   -1.2990   -0.7500    0.0000 C   0  0
    0.0000   -1.5000    0.0000 N   0  0
   -2.1327   -3.6551    0.0000 C   0  0
   -6.8041   -0.9253    0.0000 C   0  0
   -5.7192    0.1106    0.0000 Cl  0  0
   -8.2436   -0.5037    0.0000 C   0  0
  1  2  1  0
  2  3  2  0
  2  4  2  0
  2  5  1  0
  5  6  2  0
  6  7  1  0
  7  8  2  0
  8  9  1  0
  9 10  2  0
  9 11  1  0
 11 12  1  0
 12 13  2  0
 13 14  1  0
 14 15  2  0
 15 16  1  0
 15 17  1  0
 17 18  1  0
 18 19  2  0
 19 20  1  0
 20 21  2  0
 21 22  1  0
 22 23  1  0
 22 24  2  0
 24 25  1  0
 25 26  2  0
 26 27  1  0
 27 18  1  0
 27 21  1  0
 17 28  2  0
 28 12  1  0
  8 29  1  0
 29 30  1  0
 29 31  2  0
 31  5  1  0
M  END
> <Smiles>
CS(=O)(=O)c1ccc(C(=O)Nc2ccc(Cl)c(-c3nnc4c(Cl)cccn34)c2)c(Cl)c1

> <ID>
CHEMBL4641973

> <standard_value>
44600

> <IC50_uM>
44.6

> <Activity>
No

> <pIC50>
4.350665141

> <BCI>
0

$$$$

  SciTegic03012415362D

 35 38  0  0  1  0            999 V2000
    0.6137   -8.3668    0.0000 C   0  0
   -0.8500   -8.0388    0.0000 C   0  0
   -1.2977   -6.6063    0.0000 C   0  0
   -0.2816   -5.5018    0.0000 C   0  0
   -0.7292   -4.0692    0.0000 C   0  0  1  0  0  0
   -2.1929   -3.7413    0.0000 C   0  0
    0.2851   -2.9666    0.0000 C   0  0  1  0  0  0
    1.7758   -3.1329    0.0000 C   0  0
    2.3947   -1.7666    0.0000 C   0  0
    1.2990   -0.7500    0.0000 C   0  0  1  0  0  0
    1.2990    0.7500    0.0000 C   0  0
    0.0000    1.5000    0.0000 C   0  0
   -1.2990    0.7500    0.0000 C   0  0
   -2.5981    1.5000    0.0000 O   0  0
   -1.2990   -0.7500    0.0000 C   0  0
    0.0000   -1.5000    0.0000 C   0  0  2  0  0  0
   -1.2212   -2.3711    0.0000 C   0  0
    0.0000    3.0000    0.0000 C   0  0  1  0  0  0
   -1.2991    2.2500    0.0000 C   0  0
   -1.2991    3.7500    0.0000 C   0  0
   -1.2991    5.2500    0.0000 C   0  0
    0.0000    6.0000    0.0000 C   0  0
    0.0000    7.5000    0.0000 O   0  0
    1.2990    5.2500    0.0000 C   0  0  1  0  0  0
    2.5980    6.0000    0.0000 C   0  0
    1.2990    3.7500    0.0000 C   0  0  2  0  0  0
    2.5981    3.0000    0.0000 C   0  0
    2.5981    1.5000    0.0000 C   0  0
    3.8971    0.7500    0.0000 O   0  0
   -1.8661   -9.1434    0.0000 C   0  0  2  0  0  0
   -3.3298   -8.8154    0.0000 C   0  0
   -1.4185  -10.5759    0.0000 C   0  0
    0.0452  -10.9039    0.0000 O   0  0
   -2.4346  -11.6804    0.0000 O   0  0
   -1.9873  -13.1122    0.0000 C   0  0
  1  2  2  0
  2  3  1  0
  3  4  1  0
  4  5  1  0
  5  6  1  1
  5  7  1  0
  7  8  1  6
  8  9  1  0
 10  9  1  6
 10 11  1  0
 11 12  2  0
 12 13  1  0
 13 14  2  0
 13 15  1  0
 15 16  1  0
 16  7  1  0
 16 10  1  0
 16 17  1  6
 12 18  1  0
 18 19  1  6
 18 20  1  0
 20 21  1  0
 21 22  1  0
 22 23  2  0
 22 24  1  0
 24 25  1  1
 24 26  1  0
 26 18  1  0
 26 27  1  6
 27 28  1  0
 28 11  1  0
 28 29  2  0
  2 30  1  0
 30 31  1  1
 30 32  1  0
 32 33  2  0
 32 34  1  0
 34 35  1  0
M  END
> <Smiles>
C=C(CC[C@@H](C)[C@H]1CC[C@H]2C3=C(C(=O)C[C@]12C)[C@@]1(C)CCC(=O)[C@@H](C)[C@@H]1CC3=O)[C@H](C)C(=O)OC

> <ID>
CHEMBL4858340

> <standard_value>
44900

> <IC50_uM>
44.9

> <Activity>
No

> <pIC50>
4.347753659

> <BCI>
0

$$$$

  SciTegic03012415362D

 35 38  0  0  0  0            999 V2000
   13.0059   -2.9773    0.0000 O   0  0
   13.0006   -1.4773    0.0000 C   0  0
   14.2971   -0.7228    0.0000 C   0  0
   14.2919    0.7772    0.0000 C   0  0
   15.5875    1.5347    0.0000 C   0  0
   15.5802    3.0356    0.0000 N   0  0
   16.8740    3.7946    0.0000 C   0  0
   16.8636    5.2946    0.0000 C   0  0
   15.5594    6.0356    0.0000 O   0  0
   14.2656    5.2766    0.0000 C   0  0
   14.2759    3.7766    0.0000 C   0  0
   12.9903    1.5227    0.0000 O   0  0
   11.6938    0.7682    0.0000 C   0  0
   11.6990   -0.7319    0.0000 C   0  0
   10.4003   -1.4841    0.0000 O   0  0
    9.0990   -0.7364    0.0000 C   0  0
    7.8003   -1.4887    0.0000 C   0  0
    6.4990   -0.7409    0.0000 C   0  0
    5.2003   -1.4932    0.0000 C   0  0
    3.8990   -0.7455    0.0000 C   0  0
    2.6003   -1.4977    0.0000 S   0  0
    1.2990   -0.7500    0.0000 C   0  0
    1.2990    0.7500    0.0000 C   0  0
    0.0000    1.5000    0.0000 C   0  0
   -1.2990    0.7500    0.0000 N   0  0
   -1.2990   -0.7500    0.0000 C   0  0
   -2.5981   -1.5000    0.0000 C   0  0
   -2.5981   -3.0000    0.0000 C   0  0
   -3.8978   -3.7504    0.0000 C   0  0
   -5.1973   -3.0013    0.0000 F   0  0
   -3.8973   -5.2504    0.0000 F   0  0
   -5.1965   -4.5011    0.0000 F   0  0
   -1.2990   -3.7500    0.0000 C   0  0
    0.0000   -3.0000    0.0000 C   0  0
    0.0000   -1.5000    0.0000 C   0  0
  1  2  2  0
  2  3  1  0
  3  4  2  0
  4  5  1  0
  5  6  1  0
  6  7  1  0
  7  8  1  0
  8  9  1  0
  9 10  1  0
 10 11  1  0
 11  6  1  0
  4 12  1  0
 12 13  1  0
 13 14  2  0
 14  2  1  0
 14 15  1  0
 15 16  1  0
 16 17  1  0
 17 18  1  0
 18 19  1  0
 19 20  1  0
 20 21  1  0
 21 22  1  0
 22 23  2  0
 23 24  1  0
 24 25  2  0
 25 26  1  0
 26 27  2  0
 27 28  1  0
 28 29  1  0
 29 30  1  0
 29 31  1  0
 29 32  1  0
 28 33  2  0
 33 34  1  0
 34 35  2  0
 35 22  1  0
 35 26  1  0
M  END
> <Smiles>
O=c1cc(CN2CCOCC2)occ1OCCCCCSc1ccnc2cc(C(F)(F)F)ccc12

> <ID>
CHEMBL1186585

> <standard_value>
45042.75

> <IC50_uM>
45.04275

> <Activity>
No

> <pIC50>
4.346375102

> <BCI>
0

$$$$

  SciTegic03012415362D

 36 40  0  0  1  0            999 V2000
    2.1934   -5.8718    0.0000 C   0  0
    2.7084   -4.4629    0.0000 C   0  0
    4.1861   -4.2050    0.0000 C   0  0
    1.7461   -3.3113    0.0000 C   0  0
    2.2614   -1.9017    0.0000 C   0  0
    1.2990   -0.7500    0.0000 C   0  0
    1.2990    0.7500    0.0000 C   0  0
    2.5981    1.5000    0.0000 O   0  0
    0.0000    1.5000    0.0000 C   0  0
   -1.2990    0.7500    0.0000 C   0  0
   -1.2990   -0.7500    0.0000 C   0  0
    0.0000   -1.5000    0.0000 C   0  0
    0.0000   -3.0000    0.0000 O   0  0
   -2.5981   -1.5000    0.0000 C   0  0
   -2.5981   -3.0000    0.0000 O   0  0
   -3.8971   -0.7500    0.0000 C   0  0
   -5.1962   -1.5000    0.0000 C   0  0
   -6.4952   -0.7500    0.0000 C   0  0  3  0  0  0
   -6.4952    0.7500    0.0000 C   0  0
   -7.7942    1.5000    0.0000 O   0  0
   -5.1962    1.5000    0.0000 C   0  0  3  0  0  0
   -6.7069    1.5943    0.0000 C   0  0
   -7.3898    2.9308    0.0000 C   0  0
   -8.8886    3.0086    0.0000 C   0  0
   -9.5711    4.3443    0.0000 C   0  0
   -9.7045    1.7499    0.0000 C   0  0
   -6.6281    1.4607    0.0000 O   0  0
   -5.8781    2.7597    0.0000 C   0  0
   -5.1962    1.5000    0.0000 C   0  0  2  0  0  0
   -6.4952    0.7500    0.0000 C   0  0  1  0  0  0
   -7.9738    0.4924    0.0000 C   0  0
   -8.4909   -0.9165    0.0000 N   0  0
   -9.9686   -1.1740    0.0000 C   0  0
   -7.5294   -2.0679    0.0000 C   0  0
   -3.8971    0.7500    0.0000 C   0  0  3  0  0  0
   -2.5981    1.5000    0.0000 O   0  0
  1  2  1  0
  2  3  1  0
  2  4  2  0
  4  5  1  0
  5  6  1  0
  6  7  2  0
  7  8  1  0
  7  9  1  0
  9 10  2  0
 10 11  1  0
 11 12  2  0
 12  6  1  0
 12 13  1  0
 11 14  1  0
 14 15  2  0
 14 16  1  0
 16 17  2  0
 18 17  1  1
 18 19  1  0
 19 20  2  0
 19 21  1  0
 21 22  1  4
 22 23  1  0
 23 24  2  0
 24 25  1  0
 24 26  1  0
 21 27  1  0
 27 28  1  0
 29 28  1  1
 29 30  1  0
 30 18  1  0
 30 31  1  6
 31 32  1  0
 32 33  1  0
 32 34  1  0
 29 35  1  0
 35 16  1  0
 35 21  1  0
 35 36  1  1
 36 10  1  0
M  END
> <Smiles>
CC(C)=CCc1c(O)cc2c(c1O)C(=O)C1=C[C@H]3C(=O)C4(CC=C(C)C)OC[C@H]([C@H]3CN(C)C)[C@]14O2

> <ID>
CHEMBL2336123

> <standard_value>
45400

> <IC50_uM>
45.4

> <Activity>
No

> <pIC50>
4.342944147

> <BCI>
0

$$$$

  SciTegic03012415362D

 22 24  0  0  0  0            999 V2000
    6.4983   -0.7414    0.0000 C   0  0
    5.2003   -1.4932    0.0000 C   0  0
    5.2029   -2.9932    0.0000 C   0  0
    3.8990   -0.7455    0.0000 C   0  0
    2.6003   -1.4977    0.0000 C   0  0
    1.2990   -0.7500    0.0000 C   0  0
    1.2990    0.7500    0.0000 C   0  0
    2.5981    1.5000    0.0000 O   0  0
    0.0000    1.5000    0.0000 C   0  0
   -1.2990    0.7500    0.0000 C   0  0
   -2.5981    1.5000    0.0000 O   0  0
   -1.2990   -0.7500    0.0000 C   0  0
   -2.5981   -1.5000    0.0000 C   0  0
   -3.8971   -0.7500    0.0000 O   0  0
   -2.5981   -3.0000    0.0000 C   0  0
   -3.8971   -3.7500    0.0000 C   0  0
   -3.8971   -5.2500    0.0000 C   0  0
   -2.5980   -6.0000    0.0000 C   0  0
   -1.2990   -5.2500    0.0000 C   0  0
   -1.2990   -3.7500    0.0000 C   0  0
    0.0000   -3.0000    0.0000 O   0  0
    0.0000   -1.5000    0.0000 C   0  0
  1  2  1  0
  2  3  1  0
  2  4  2  0
  4  5  1  0
  5  6  1  0
  6  7  2  0
  7  8  1  0
  7  9  1  0
  9 10  2  0
 10 11  1  0
 10 12  1  0
 12 13  1  0
 13 14  2  0
 13 15  1  0
 15 16  2  0
 16 17  1  0
 17 18  2  0
 18 19  1  0
 19 20  2  0
 20 15  1  0
 20 21  1  0
 21 22  1  0
 22  6  1  0
 22 12  2  0
M  END
> <Smiles>
CC(C)=CCc1c(O)cc(O)c2c(=O)c3ccccc3oc12

> <ID>
CHEMBL1958318

> <standard_value>
46760

> <IC50_uM>
46.76

> <Activity>
No

> <pIC50>
4.330125498

> <BCI>
0

$$$$

  SciTegic03012415362D

137149  0  0  1  0            999 V2000
  -17.7771  -34.7174    0.0000 C   0  0
  -16.2995  -34.4587    0.0000 C   0  0
  -15.7836  -33.0494    0.0000 C   0  0  1  0  0  0
  -16.7461  -31.8988    0.0000 C   0  0
  -14.8212  -34.1999    0.0000 O   0  0
  -14.3053  -32.7905    0.0000 C   0  0
  -13.7894  -31.3812    0.0000 C   0  0
  -12.3110  -31.1223    0.0000 C   0  0
  -11.7951  -29.7130    0.0000 C   0  0
  -12.7576  -28.5624    0.0000 C   0  0
  -10.3168  -29.4542    0.0000 C   0  0
   -9.3544  -30.6047    0.0000 O   0  0
   -9.8009  -28.0448    0.0000 O   0  0
   -8.3225  -27.7860    0.0000 C   0  0  1  0  0  0
   -7.8049  -26.3780    0.0000 C   0  0  2  0  0  0
   -8.7681  -25.2271    0.0000 O   0  0
  -10.2467  -25.4849    0.0000 C   0  0
  -11.2099  -24.3340    0.0000 C   0  0  1  0  0  0
  -10.6922  -22.9261    0.0000 O   0  0
  -11.6525  -21.7738    0.0000 C   0  0  1  0  0  0
  -11.1317  -20.3662    0.0000 O   0  0
   -9.6524  -20.1126    0.0000 C   0  0
   -8.6941  -21.2665    0.0000 O   0  0
   -9.1316  -18.7051    0.0000 C   0  0  2  0  0  0
  -10.4346  -19.4481    0.0000 C   0  0
  -11.7296  -18.6911    0.0000 C   0  0
  -11.7216  -17.1912    0.0000 C   0  0
  -13.0067  -17.9647    0.0000 C   0  0
  -11.6783  -15.6918    0.0000 C   0  0
  -10.4185  -16.4481    0.0000 C   0  0
   -9.1235  -17.2051    0.0000 C   0  0  2  0  0  0
   -7.8205  -16.4621    0.0000 C   0  0
   -7.8124  -14.9621    0.0000 C   0  0
   -6.5094  -14.2191    0.0000 C   0  0
   -5.2144  -14.9760    0.0000 C   0  0  2  0  0  0
   -3.9113  -14.2330    0.0000 C   0  0  1  0  0  0
   -5.2063  -13.4760    0.0000 C   0  0
   -3.9033  -12.7330    0.0000 C   0  0
   -2.6002  -11.9900    0.0000 C   0  0
   -1.3053  -12.7470    0.0000 C   0  0  2  0  0  0
   -0.0030  -12.0008    0.0000 O   0  0
    1.2947  -12.7547    0.0000 C   0  0  2  0  0  0
    2.5943  -12.0056    0.0000 O   0  0
    3.8929  -12.7564    0.0000 C   0  0  2  0  0  0
    5.1916  -12.0042    0.0000 C   0  0
    5.1904  -10.5034    0.0000 O   0  0
    6.4891   -9.7511    0.0000 C   0  0  2  0  0  0
    7.7878  -10.5019    0.0000 O   0  0
    9.0873   -9.7527    0.0000 C   0  0
    9.0882   -8.2527    0.0000 C   0  0  2  0  0  0
   10.3877   -7.5035    0.0000 O   0  0
    7.7897   -7.5019    0.0000 C   0  0  2  0  0  0
    7.7906   -6.0019    0.0000 O   0  0
    6.4902   -8.2511    0.0000 C   0  0  1  0  0  0
    5.1924   -7.4972    0.0000 O   0  0
    5.1956   -5.9963    0.0000 C   0  0  2  0  0  0
    6.4977   -5.2516    0.0000 O   0  0
    6.5039   -3.7516    0.0000 C   0  0
    5.2079   -2.9963    0.0000 C   0  0  1  0  0  0
    5.2141   -1.4963    0.0000 O   0  0
    3.9058   -3.7409    0.0000 C   0  0  2  0  0  0
    2.6099   -2.9856    0.0000 O   0  0
    3.8996   -5.2409    0.0000 C   0  0  1  0  0  0
    2.5975   -5.9855    0.0000 O   0  0
    3.8919  -14.2564    0.0000 C   0  0  1  0  0  0
    5.1905  -15.0073    0.0000 O   0  0
    2.5924  -15.0056    0.0000 C   0  0  2  0  0  0
    2.5914  -16.5056    0.0000 O   0  0
    1.2938  -14.2548    0.0000 C   0  0  1  0  0  0
   -0.0057  -15.0040    0.0000 O   0  0
   -1.3133  -14.2469    0.0000 C   0  0
   -1.3568  -15.7463    0.0000 C   0  0
   -0.0281  -13.4735    0.0000 C   0  0
   -2.6164  -14.9900    0.0000 C   0  0  2  0  0  0
   -2.6244  -16.4899    0.0000 C   0  0
   -3.9274  -17.2329    0.0000 C   0  0
   -5.2224  -16.4760    0.0000 C   0  0  2  0  0  0
   -5.2305  -17.9760    0.0000 C   0  0
   -6.5255  -17.2190    0.0000 C   0  0  1  0  0  0
   -6.5174  -15.7190    0.0000 C   0  0
   -6.5335  -18.7190    0.0000 C   0  0
   -7.8366  -19.4620    0.0000 C   0  0  1  0  0  0
   -7.8446  -20.9620    0.0000 O   0  0
  -13.1306  -22.0294    0.0000 C   0  0  2  0  0  0
  -14.0892  -20.8746    0.0000 O   0  0
  -15.5687  -21.1263    0.0000 C   0  0  2  0  0  0
  -16.0874  -22.5339    0.0000 O   0  0
  -17.5656  -22.7885    0.0000 C   0  0  1  0  0  0
  -18.0842  -24.1960    0.0000 C   0  0
  -18.5253  -21.6356    0.0000 C   0  0  2  0  0  0
  -20.0038  -21.8935    0.0000 O   0  0
  -20.5207  -23.3025    0.0000 C   0  0  2  0  0  0
  -19.5571  -24.4521    0.0000 O   0  0
  -20.0708  -25.8614    0.0000 C   0  0
  -21.5481  -26.1211    0.0000 C   0  0  1  0  0  0
  -22.0619  -27.5304    0.0000 O   0  0
  -22.5118  -24.9716    0.0000 C   0  0  2  0  0  0
  -23.9894  -25.2345    0.0000 O   0  0
  -24.5014  -26.6453    0.0000 C   0  0  2  0  0  0
  -23.5338  -27.7916    0.0000 O   0  0
  -24.0427  -29.2027    0.0000 C   0  0
  -25.5191  -29.4675    0.0000 C   0  0  1  0  0  0
  -26.0280  -30.8785    0.0000 O   0  0
  -26.4867  -28.3213    0.0000 C   0  0  2  0  0  0
  -27.9631  -28.5861    0.0000 O   0  0
  -25.9778  -26.9102    0.0000 C   0  0  1  0  0  0
  -26.9454  -25.7640    0.0000 O   0  0
  -21.9980  -23.5623    0.0000 C   0  0  1  0  0  0
  -22.9617  -22.4128    0.0000 O   0  0
  -18.0067  -20.2281    0.0000 C   0  0  1  0  0  0
  -18.9663  -19.0753    0.0000 O   0  0
  -16.5284  -19.9735    0.0000 C   0  0  1  0  0  0
  -16.0099  -18.5660    0.0000 O   0  0
  -13.6483  -23.4373    0.0000 C   0  0  1  0  0  0
  -15.1264  -23.6928    0.0000 O   0  0
  -12.6880  -24.5895    0.0000 C   0  0  2  0  0  0
  -13.2057  -25.9973    0.0000 O   0  0
   -6.3268  -26.1225    0.0000 O   0  0
   -5.3664  -27.2748    0.0000 C   0  0  1  0  0  0
   -3.8883  -27.0192    0.0000 C   0  0
   -5.8841  -28.6826    0.0000 C   0  0  2  0  0  0
   -4.9237  -29.8349    0.0000 O   0  0
   -7.3622  -28.9382    0.0000 C   0  0  1  0  0  0
   -7.8772  -30.3479    0.0000 O   0  0
   -6.9147  -31.4994    0.0000 C   0  0
   -5.4371  -31.2412    0.0000 O   0  0
   -7.4297  -32.9091    0.0000 C   0  0
   -6.4672  -34.0606    0.0000 C   0  0
   -6.9823  -35.4703    0.0000 C   0  0
   -6.0197  -36.6218    0.0000 C   0  0
   -6.5348  -38.0314    0.0000 C   0  0  2  0  0  0
   -7.0502  -39.4401    0.0000 C   0  0
   -8.0124  -38.2896    0.0000 O   0  0
   -5.5722  -39.1829    0.0000 C   0  0
   -6.0870  -40.5918    0.0000 C   0  0
   -8.9077  -33.1704    0.0000 C   0  0
   -9.4209  -34.5799    0.0000 O   0  0
  1  2  2  0
  2  3  1  0
  3  4  1  1
  3  5  1  0
  3  6  1  0
  6  7  1  0
  7  8  1  0
  8  9  2  0
  9 10  1  0
  9 11  1  0
 11 12  2  0
 11 13  1  0
 14 13  1  1
 14 15  1  0
 15 16  1  6
 16 17  1  0
 18 17  1  6
 18 19  1  0
 19 20  1  0
 20 21  1  6
 21 22  1  0
 22 23  2  0
 24 22  1  6
 24 25  1  0
 25 26  1  0
 26 27  1  0
 27 28  1  0
 27 29  1  0
 27 30  1  0
 31 30  1  6
 31 24  1  0
 31 32  1  0
 32 33  2  0
 33 34  1  0
 35 34  1  6
 35 36  1  0
 36 37  1  6
 36 38  1  0
 38 39  1  0
 39 40  1  0
 40 41  1  6
 42 41  1  6
 42 43  1  0
 43 44  1  0
 44 45  1  6
 45 46  1  0
 47 46  1  1
 47 48  1  0
 48 49  1  0
 49 50  1  0
 50 51  1  1
 50 52  1  0
 52 53  1  1
 52 54  1  0
 54 47  1  0
 54 55  1  6
 56 55  1  1
 56 57  1  0
 57 58  1  0
 58 59  1  0
 59 60  1  6
 59 61  1  0
 61 62  1  1
 61 63  1  0
 63 56  1  0
 63 64  1  6
 44 65  1  0
 65 66  1  1
 65 67  1  0
 67 68  1  6
 67 69  1  0
 69 42  1  0
 69 70  1  1
 40 71  1  0
 71 72  1  0
 71 73  1  0
 71 74  1  0
 74 36  1  0
 74 75  1  6
 75 76  1  0
 76 77  1  0
 77 35  1  0
 77 78  1  6
 77 79  1  0
 79 32  1  0
 79 80  1  1
 79 81  1  0
 81 82  1  0
 82 24  1  0
 82 83  1  1
 20 84  1  0
 84 85  1  1
 86 85  1  6
 86 87  1  0
 87 88  1  0
 88 89  1  1
 88 90  1  0
 90 91  1  6
 92 91  1  6
 92 93  1  0
 93 94  1  0
 94 95  1  0
 95 96  1  1
 95 97  1  0
 97 98  1  6
 99 98  1  6
 99100  1  0
100101  1  0
101102  1  0
102103  1  1
102104  1  0
104105  1  6
104106  1  0
106 99  1  0
106107  1  1
 97108  1  0
108 92  1  0
108109  1  1
 90110  1  0
110111  1  1
110112  1  0
112 86  1  0
112113  1  1
 84114  1  0
114115  1  6
114116  1  0
116 18  1  0
116117  1  1
 15118  1  0
118119  1  0
119120  1  1
119121  1  0
121122  1  6
121123  1  0
123 14  1  0
123124  1  1
124125  1  0
125126  2  0
125127  1  0
127128  2  0
128129  1  0
129130  1  0
130131  1  0
131132  1  6
131133  1  0
131134  1  0
134135  2  0
127136  1  0
136137  1  0
M  END
> <Smiles>
C=C[C@@](C)(O)CC/C=C(\C)C(=O)O[C@H]1[C@H](OC[C@H]2O[C@@H](OC(=O)[C@]34CCC(C)(C)C[C@@H]3C3=CC[C@@H]5[C@@]6(C)CC[C@H](O[C@@H]7O[C@H](CO[C@@H]8OC[C@H](O)[C@H](O)[C@H]8O[C@@H]8OC[C@@H](O)[C@H](O)[C@H]8O)[
C@@H](O)[C@H](O)[C@H]7O)C(C)(C)[C@@H]6CC[C@@]5(C)[C@]3(C)C[C@H]4O)[C@H](O[C@@H]3O[C@@H](C)[C@H](O[C@@H]4OC[C@@H](O)[C@H](O[C@@H]5OC[C@@H](O)[C@H](O)[C@H]5O)[C@H]4O)[C@@H](O)[C@H]3O)[C@@H](O)[C@@H]2O)O
[C@@H](C)[C@H](O)[C@H]1OC(=O)/C(=C/CC[C@](C)(O)C=C)CO

> <ID>
CHEMBL504224

> <standard_value>
46810

> <IC50_uM>
46.81

> <Activity>
No

> <pIC50>
4.329661359

> <BCI>
0

$$$$

  SciTegic03012415362D

 25 25  0  0  0  0            999 V2000
   18.1995   -1.4701    0.0000 C   0  0
   16.8989   -0.7228    0.0000 C   0  0
   16.8963    0.7772    0.0000 C   0  0
   15.6002   -1.4751    0.0000 C   0  0
   14.2989   -0.7273    0.0000 C   0  0
   13.0002   -1.4796    0.0000 C   0  0
   11.6990   -0.7319    0.0000 C   0  0
   11.6963    0.7681    0.0000 C   0  0
   10.4003   -1.4841    0.0000 C   0  0
    9.0990   -0.7364    0.0000 C   0  0
    7.8003   -1.4887    0.0000 C   0  0
    6.4990   -0.7409    0.0000 C   0  0
    6.4964    0.7591    0.0000 C   0  0
    5.2003   -1.4932    0.0000 C   0  0
    3.8990   -0.7455    0.0000 C   0  0
    2.6003   -1.4977    0.0000 S   0  0
    1.2990   -0.7500    0.0000 C   0  0
    1.2990    0.7500    0.0000 C   0  0
    0.0000    1.5000    0.0000 C   0  0
   -1.2990    0.7500    0.0000 C   0  0
   -1.2990   -0.7500    0.0000 C   0  0
    0.0000   -1.5000    0.0000 C   0  0
   -0.0031   -3.0008    0.0000 C   0  0
   -1.3032   -3.7490    0.0000 O   0  0
    1.2947   -3.7531    0.0000 O   0  0
  1  2  1  0
  2  3  1  0
  2  4  2  0
  4  5  1  0
  5  6  1  0
  6  7  1  0
  7  8  1  0
  7  9  2  0
  9 10  1  0
 10 11  1  0
 11 12  1  0
 12 13  1  0
 12 14  2  0
 14 15  1  0
 15 16  1  0
 16 17  1  0
 17 18  2  0
 18 19  1  0
 19 20  2  0
 20 21  1  0
 21 22  2  0
 22 17  1  0
 22 23  1  0
 23 24  2  0
 23 25  1  0
M  END
> <Smiles>
CC(C)=CCC/C(C)=C/CC/C(C)=C/CSc1ccccc1C(=O)O

> <ID>
CHEMBL23293

> <standard_value>
46910

> <IC50_uM>
46.91

> <Activity>
No

> <pIC50>
4.328734567

> <BCI>
0

$$$$

  SciTegic03012415362D

 25 28  0  0  1  0            999 V2000
    3.9207   -1.7187    0.0000 C   0  0
    2.4208   -1.6992    0.0000 S   0  0
    1.6852   -0.3846    0.0000 C   0  0  1  0  0  0
    1.3514    1.0778    0.0000 C   0  0
    2.3882    2.1623    0.0000 C   0  0
    1.6774    3.4832    0.0000 C   0  0
    2.3282    4.8347    0.0000 C   0  0
    0.2015    3.2154    0.0000 O   0  0
    0.0000    1.7286    0.0000 C   0  0
   -1.3515    1.0777    0.0000 C   0  0
   -1.6852   -0.3847    0.0000 C   0  0
   -2.6719    0.7452    0.0000 C   0  0
   -2.0841   -1.8307    0.0000 C   0  0
   -0.7500   -1.5574    0.0000 C   0  0
    0.7500   -1.5574    0.0000 N   0  0
    1.9550   -2.4553    0.0000 C   0  0
    2.1566   -3.9417    0.0000 O   0  0
    2.8756   -1.2711    0.0000 C   0  0  1  0  0  0
    4.3569   -1.0713    0.0000 O   0  0
    5.2751   -2.2585    0.0000 C   0  0
    6.7619   -2.0601    0.0000 C   0  0
    7.6772   -3.2485    0.0000 C   0  0
    7.1056   -4.6354    0.0000 C   0  0
    5.6188   -4.8338    0.0000 C   0  0
    4.7035   -3.6454    0.0000 C   0  0
  1  2  1  0
  3  2  1  6
  3  4  1  0
  4  5  1  0
  5  6  2  0
  6  7  1  0
  6  8  1  0
  8  9  1  0
  9  4  2  0
  9 10  1  0
 10 11  1  0
 11 12  1  0
 11 13  1  0
 11 14  1  0
 14 15  1  0
 15  3  1  0
 15 16  1  0
 16 17  2  0
 16 18  1  0
 18  3  1  0
 18 19  1  6
 19 20  1  0
 20 21  2  0
 21 22  1  0
 22 23  2  0
 23 24  1  0
 24 25  2  0
 25 20  1  0
M  END
> <Smiles>
CS[C@@]12c3cc(C)oc3CC(C)(C)CN1C(=O)[C@H]2Oc1ccccc1

> <ID>
CHEMBL432108

> <standard_value>
47000

> <IC50_uM>
47

> <Activity>
No

> <pIC50>
4.327902142

> <BCI>
0

$$$$

  SciTegic03012415362D

 80 87  0  0  1  0            999 V2000
    5.2103   -5.9944    0.0000 C   0  0
    3.9097   -5.2471    0.0000 C   0  0
    3.9057   -3.7463    0.0000 C   0  0
    5.2029   -2.9932    0.0000 C   0  0
    2.6044   -2.9986    0.0000 C   0  0
    1.3071   -3.7516    0.0000 O   0  0
    2.6003   -1.4977    0.0000 O   0  0
    1.2990   -0.7500    0.0000 C   0  0  1  0  0  0
    1.2990    0.7500    0.0000 C   0  0  2  0  0  0
    2.1651    1.2500    0.0000 O   0  0
    0.0000    1.5000    0.0000 C   0  0  2  0  0  0
    1.2997    2.2504    0.0000 C   0  0
    2.6000    1.5008    0.0000 O   0  0
    3.8997    2.2513    0.0000 C   0  0
    3.8992    3.7513    0.0000 C   0  0
    5.1992    1.5021    0.0000 O   0  0
    0.0000    3.0000    0.0000 C   0  0  2  0  0  0
    1.2990    3.7500    0.0000 O   0  0
   -1.2991    3.7500    0.0000 C   0  0
   -2.5981    3.0000    0.0000 C   0  0  2  0  0  0
   -2.5981    4.0000    0.0000 C   0  0
   -2.5981    1.5000    0.0000 C   0  0
   -3.8971    0.7500    0.0000 C   0  0
   -5.1962    1.5000    0.0000 C   0  0
   -5.1962    3.0000    0.0000 C   0  0  2  0  0  0
   -6.4952    3.7500    0.0000 C   0  0  1  0  0  0
   -6.4952    2.2500    0.0000 C   0  0
   -7.7943    3.0000    0.0000 C   0  0
   -9.0933    3.7500    0.0000 C   0  0
   -9.0933    5.2500    0.0000 C   0  0  2  0  0  0
  -10.3946    5.9977    0.0000 O   0  0
  -11.6933    5.2454    0.0000 C   0  0  2  0  0  0
  -11.6882    3.7454    0.0000 O   0  0
  -12.9846    2.9909    0.0000 C   0  0  2  0  0  0
  -13.4901    1.5778    0.0000 C   0  0
  -14.4740    1.3990    0.0000 O   0  0
  -12.5198    0.4328    0.0000 O   0  0
  -12.8567   -0.5088    0.0000 C   0  0
  -14.2862    3.7364    0.0000 C   0  0  1  0  0  0
  -15.5818    2.9788    0.0000 O   0  0
  -15.5745    1.4780    0.0000 C   0  0  2  0  0  0
  -14.2703    0.7369    0.0000 O   0  0
  -14.2599   -0.7630    0.0000 C   0  0  2  0  0  0
  -12.9535   -1.5018    0.0000 C   0  0
  -12.0917   -0.9946    0.0000 O   0  0
  -15.5538   -1.5220    0.0000 C   0  0  1  0  0  0
  -15.5434   -3.0220    0.0000 O   0  0
  -16.8579   -0.7810    0.0000 C   0  0  2  0  0  0
  -18.1518   -1.5400    0.0000 O   0  0
  -16.8683    0.7190    0.0000 C   0  0  1  0  0  0
  -18.1725    1.4599    0.0000 O   0  0
  -14.2914    5.2364    0.0000 C   0  0  2  0  0  0
  -15.5930    5.9819    0.0000 O   0  0
  -12.9950    5.9909    0.0000 C   0  0  1  0  0  0
  -13.0033    7.4917    0.0000 O   0  0
  -14.3067    8.2357    0.0000 C   0  0  2  0  0  0
  -15.6006    7.4767    0.0000 O   0  0
  -16.9048    8.2177    0.0000 C   0  0  2  0  0  0
  -18.1978    7.4556    0.0000 C   0  0
  -18.1852    5.9556    0.0000 O   0  0
  -16.9153    9.7176    0.0000 C   0  0  1  0  0  0
  -18.2195   10.4586    0.0000 O   0  0
  -15.6215   10.4766    0.0000 C   0  0  2  0  0  0
  -15.6319   11.9766    0.0000 O   0  0
  -14.3172    9.7357    0.0000 C   0  0  1  0  0  0
  -13.0235   10.4947    0.0000 O   0  0
   -7.7943    6.0000    0.0000 C   0  0  2  0  0  0
   -6.4772    6.7179    0.0000 C   0  0
   -9.0942    6.7084    0.0000 C   0  0
   -9.1439    7.7071    0.0000 O   0  0
   -6.4952    5.2500    0.0000 C   0  0  2  0  0  0
   -5.1962    6.0000    0.0000 C   0  0
   -3.8971    5.2500    0.0000 C   0  0
   -3.8971    3.7500    0.0000 C   0  0  1  0  0  0
   -3.0311    4.2500    0.0000 C   0  0
   -1.2990    0.7500    0.0000 C   0  0  2  0  0  0
   -1.2990   -0.7500    0.0000 C   0  0
    0.0000   -1.5000    0.0000 C   0  0
    1.3164   -2.2191    0.0000 C   0  0
   -1.3163   -2.2193    0.0000 C   0  0
  1  2  1  0
  2  3  2  0
  3  4  1  0
  3  5  1  0
  5  6  2  0
  5  7  1  0
  8  7  1  6
  8  9  1  0
  9 10  1  1
  9 11  1  0
 11 12  1  6
 12 13  1  0
 13 14  1  0
 14 15  1  0
 14 16  2  0
 11 17  1  0
 17 18  1  1
 17 19  1  0
 19 20  1  0
 20 21  1  1
 20 22  1  0
 22 23  2  0
 23 24  1  0
 25 24  1  6
 25 26  1  0
 26 27  1  6
 26 28  1  0
 28 29  1  0
 29 30  1  0
 30 31  1  6
 32 31  1  6
 32 33  1  0
 33 34  1  0
 34 35  1  6
 35 36  2  0
 35 37  1  0
 37 38  1  0
 34 39  1  0
 39 40  1  1
 41 40  1  6
 41 42  1  0
 42 43  1  0
 43 44  1  6
 44 45  1  0
 43 46  1  0
 46 47  1  1
 46 48  1  0
 48 49  1  6
 48 50  1  0
 50 41  1  0
 50 51  1  1
 39 52  1  0
 52 53  1  6
 52 54  1  0
 54 32  1  0
 54 55  1  1
 56 55  1  6
 56 57  1  0
 57 58  1  0
 58 59  1  6
 59 60  1  0
 58 61  1  0
 61 62  1  1
 61 63  1  0
 63 64  1  6
 63 65  1  0
 65 56  1  0
 65 66  1  1
 30 67  1  0
 67 68  1  1
 67 69  1  0
 69 70  1  0
 67 71  1  0
 71 26  1  0
 71 72  1  6
 72 73  1  0
 73 74  1  0
 74 25  1  0
 74 20  1  0
 74 75  1  6
 22 76  1  0
 76 11  1  0
 76 77  1  1
 77 78  1  0
 78  8  1  0
 78 79  1  0
 78 80  1  0
M  END
> <Smiles>
C/C=C(\C)C(=O)O[C@H]1[C@H](O)[C@]2(COC(C)=O)[C@H](O)C[C@]3(C)C(=CC[C@@H]4[C@@]5(C)CC[C@H](O[C@@H]6O[C@H](C(=O)OC)[C@@H](O[C@@H]7O[C@H](CO)[C@@H](O)[C@H](O)[C@H]7O)[C@H](O)[C@H]6O[C@@H]6O[C@H](CO)[C@@H
](O)[C@H](O)[C@H]6O)[C@](C)(CO)[C@@H]5CC[C@]43C)[C@@H]2CC1(C)C

> <ID>
CHEMBL3357146

> <standard_value>
48400

> <IC50_uM>
48.4

> <Activity>
No

> <pIC50>
4.315154638

> <BCI>
0

$$$$

  SciTegic03012415362D

 32 36  0  0  1  0            999 V2000
    4.6780    2.9052    0.0000 C   0  0
    3.2073    2.6100    0.0000 C   0  0
    2.2166    3.7363    0.0000 C   0  0
    2.7272    1.1906    0.0000 C   0  0  2  0  0  0
    3.6011   -0.0286    0.0000 C   0  0
    2.7117   -1.2364    0.0000 C   0  0
    1.2990   -0.7500    0.0000 C   0  0  1  0  0  0
    1.4428   -2.2431    0.0000 C   0  0
    1.2990    0.7500    0.0000 C   0  0  1  0  0  0
    0.0000    1.5000    0.0000 C   0  0  1  0  0  0
    0.0000    3.0000    0.0000 C   0  0
   -1.2991    3.7500    0.0000 C   0  0
   -2.5981    3.0000    0.0000 C   0  0  1  0  0  0
   -3.8971    3.7500    0.0000 C   0  0  1  0  0  0
   -2.5981    4.5000    0.0000 C   0  0
   -3.8972    5.2500    0.0000 C   0  0
   -5.1962    6.0000    0.0000 C   0  0
   -6.4952    5.2500    0.0000 C   0  0  2  0  0  0
   -7.7943    5.9999    0.0000 O   0  0
   -6.4952    3.7500    0.0000 C   0  0
   -6.4598    2.2504    0.0000 C   0  0
   -7.7763    4.5302    0.0000 C   0  0
   -5.1962    3.0000    0.0000 C   0  0  2  0  0  0
   -5.1962    1.5000    0.0000 C   0  0
   -3.8971    0.7500    0.0000 C   0  0
   -2.5981    1.5000    0.0000 C   0  0  2  0  0  0
   -2.5981    0.0000    0.0000 C   0  0
   -1.2990    0.7500    0.0000 C   0  0  1  0  0  0
    0.0000    0.0000    0.0000 C   0  0
   -1.2990   -0.7500    0.0000 C   0  0
    0.0000   -1.5000    0.0000 C   0  0  2  0  0  0
    0.0000   -3.0000    0.0000 O   0  0
  1  2  2  0
  2  3  1  0
  4  2  1  6
  4  5  1  0
  5  6  1  0
  6  7  1  0
  7  8  1  1
  9  7  1  1
  9  4  1  0
  9 10  1  0
 10 11  1  6
 11 12  1  0
 13 12  1  6
 13 14  1  0
 14 15  1  1
 14 16  1  0
 16 17  1  0
 17 18  1  0
 18 19  1  1
 18 20  1  0
 20 21  1  0
 20 22  1  0
 20 23  1  0
 23 14  1  0
 23 24  1  1
 24 25  1  0
 25 26  1  0
 26 13  1  0
 26 27  1  1
 26 28  1  0
 28 10  1  0
 28 29  1  6
 28 30  1  0
 30 31  1  0
 31  7  1  0
 31 32  1  1
M  END
> <Smiles>
C=C(C)[C@@H]1CC[C@@]2(C)[C@H]1[C@H]1CC[C@H]3[C@@]4(C)CC[C@H](O)C(C)(C)[C@@H]4CC[C@@]3(C)[C@]1(C)C[C@@H]2O

> <ID>
CHEMBL462795

> <standard_value>
48440

> <IC50_uM>
48.44

> <Activity>
No

> <pIC50>
4.314795866

> <BCI>
0

$$$$

  SciTegic03012415362D

 65 70  0  0  1  0            999 V2000
    6.7236    2.0421    0.0000 C   0  0
    5.4200    1.3000    0.0000 C   0  0  2  0  0  0
    4.1200    2.0600    0.0000 N   0  0
    4.1300    3.5500    0.0000 C   0  0
    5.4327    4.2937    0.0000 O   0  0
    2.8400    4.3000    0.0000 C   0  0  1  0  0  0
    2.8537    5.7999    0.0000 C   0  0
    1.5300    3.5700    0.0000 N   0  0
    0.2400    4.3200    0.0000 C   0  0
    0.2444    5.8200    0.0000 O   0  0
   -1.0500    3.5800    0.0000 C   0  0  2  0  0  0
   -2.7000    5.1600    0.0000 C   0  0
   -4.3200    5.1400    0.0000 C   0  0
   -5.0500    6.4600    0.0000 C   0  0
   -6.5400    6.4700    0.0000 C   0  0
   -7.3100    5.1800    0.0000 C   0  0
   -8.8108    5.1950    0.0000 O   0  0
   -9.5490    6.5017    0.0000 C   0  0  2  0  0  0
   -8.7843    7.7922    0.0000 O   0  0
   -9.5194    9.0997    0.0000 C   0  0  2  0  0  0
   -8.7516   10.3893    0.0000 C   0  0
   -7.2517   10.3700    0.0000 O   0  0
  -11.0193    9.1168    0.0000 C   0  0  1  0  0  0
  -11.7545   10.4243    0.0000 O   0  0
  -11.7841    7.8264    0.0000 C   0  0  2  0  0  0
  -13.2840    7.8435    0.0000 O   0  0
  -11.0490    6.5189    0.0000 C   0  0  1  0  0  0
  -11.8138    5.2286    0.0000 O   0  0
   -6.5800    3.8900    0.0000 C   0  0
   -5.0900    3.8600    0.0000 C   0  0
   -7.6300    2.5700    0.0000 O   0  0
   -7.0000    1.3200    0.0000 C   0  0
   -5.5600    1.7200    0.0000 C   0  0
   -4.5000    0.6500    0.0000 C   0  0
   -4.8800   -0.7900    0.0000 C   0  0
   -6.3400   -1.1700    0.0000 C   0  0
   -7.3900   -0.1200    0.0000 C   0  0
   -3.5800   -1.3300    0.0000 C   0  0
   -2.3600   -0.1500    0.0000 C   0  0  1  0  0  0
   -2.3600    1.3400    0.0000 C   0  0
   -3.6567    2.0940    0.0000 O   0  0
   -1.0600    2.0800    0.0000 N   0  0
    0.2342    1.3217    0.0000 C   0  0
   -1.0700   -0.9100    0.0000 N   0  0
    0.2348   -0.1701    0.0000 C   0  0
   -1.0800   -2.4100    0.0000 C   0  0
   -2.3827   -3.1537    0.0000 O   0  0
    0.2100   -3.1600    0.0000 C   0  0  2  0  0  0
    0.2031   -4.6600    0.0000 C   0  0
    1.5100   -2.4200    0.0000 N   0  0
    2.8000   -3.1700    0.0000 C   0  0
    2.7956   -4.6700    0.0000 O   0  0
    4.0900   -2.4300    0.0000 C   0  0  2  0  0  0
    5.3805   -3.1967    0.0000 C   0  0
    5.3626   -4.6974    0.0000 C   0  0
    6.6511   -5.4655    0.0000 C   0  0
    6.6302   -6.9654    0.0000 C   0  0
    5.3209   -7.6972    0.0000 C   0  0
    5.3000   -9.1971    0.0000 O   0  0
    4.0324   -6.9292    0.0000 C   0  0
    4.0532   -5.4294    0.0000 C   0  0
    4.1100   -0.9300    0.0000 N   0  0
    2.8183   -0.1674    0.0000 C   0  0
    5.4100   -0.1900    0.0000 C   0  0
    6.7042   -0.9483    0.0000 O   0  0
  2  1  1  1
  2  3  1  0
  3  4  1  0
  4  5  2  0
  4  6  1  0
  6  7  1  6
  6  8  1  0
  8  9  1  0
  9 10  2  0
  9 11  1  0
 11 12  1  1
 12 13  1  0
 13 14  2  0
 14 15  1  0
 15 16  2  0
 16 17  1  0
 18 17  1  1
 18 19  1  0
 19 20  1  0
 20 21  1  1
 21 22  1  0
 20 23  1  0
 23 24  1  6
 23 25  1  0
 25 26  1  1
 25 27  1  0
 27 18  1  0
 27 28  1  6
 16 29  1  0
 29 30  2  0
 30 13  1  0
 29 31  1  0
 31 32  1  0
 32 33  2  0
 33 34  1  0
 34 35  2  0
 35 36  1  0
 36 37  2  0
 37 32  1  0
 35 38  1  0
 39 38  1  1
 39 40  1  0
 40 41  2  0
 40 42  1  0
 42 11  1  0
 42 43  1  0
 39 44  1  0
 44 45  1  0
 44 46  1  0
 46 47  2  0
 46 48  1  0
 48 49  1  1
 48 50  1  0
 50 51  1  0
 51 52  2  0
 51 53  1  0
 53 54  1  1
 54 55  1  0
 55 56  2  0
 56 57  1  0
 57 58  2  0
 58 59  1  0
 58 60  1  0
 60 61  2  0
 61 55  1  0
 53 62  1  0
 62 63  1  0
 62 64  1  0
 64  2  1  0
 64 65  2  0
M  END
> <Smiles>
C[C@@H]1NC(=O)[C@@H](C)NC(=O)[C@@H]2Cc3ccc(O[C@@H]4O[C@H](CO)[C@@H](O)[C@H](O)[C@H]4O)c(c3)Oc3ccc(cc3)C[C@@H](C(=O)N2C)N(C)C(=O)[C@H](C)NC(=O)[C@H](Cc2ccc(O)cc2)N(C)C1=O

> <ID>
CHEMBL1288986

> <standard_value>
48610

> <IC50_uM>
48.61

> <Activity>
No

> <pIC50>
4.313274379

> <BCI>
0

$$$$

  SciTegic03012415362D

 23 25  0  0  0  0            999 V2000
    2.5981   -1.5000    0.0000 C   0  0
    1.2990   -0.7500    0.0000 C   0  0
    1.2990    0.7500    0.0000 N   0  0
    0.0000    1.5000    0.0000 C   0  0
   -1.2990    0.7500    0.0000 C   0  0
   -1.2990   -0.7500    0.0000 C   0  0
   -2.4133   -1.7530    0.0000 C   0  0
   -3.9040   -1.5957    0.0000 C   0  0
   -4.7856   -2.8092    0.0000 C   0  0
   -4.1755   -4.1795    0.0000 C   0  0
   -5.0552   -5.3956    0.0000 O   0  0
   -4.4428   -6.7657    0.0000 C   0  0
   -5.3224   -7.9818    0.0000 C   0  0
   -4.7104   -9.3512    0.0000 C   0  0
   -6.8145   -7.8276    0.0000 C   0  0
   -2.6837   -4.3363    0.0000 C   0  0
   -1.8032   -3.1233    0.0000 C   0  0
   -0.3114   -2.9665    0.0000 N   0  0
    0.6936   -4.0776    0.0000 C   0  0
    2.1611   -3.7632    0.0000 C   0  0
    3.1674   -4.8756    0.0000 C   0  0
    2.6219   -2.3357    0.0000 C   0  0
    0.0000   -1.5000    0.0000 C   0  0
  1  2  1  0
  2  3  2  0
  3  4  1  0
  4  5  2  0
  5  6  1  0
  6  7  1  0
  7  8  2  0
  8  9  1  0
  9 10  2  0
 10 11  1  0
 11 12  1  0
 12 13  1  0
 13 14  1  0
 13 15  1  0
 10 16  1  0
 16 17  2  0
 17  7  1  0
 17 18  1  0
 18 19  1  0
 19 20  1  0
 20 21  1  0
 20 22  1  0
 18 23  1  0
 23  2  1  0
 23  6  2  0
M  END
> <Smiles>
Cc1nccc2c3ccc(OCC(C)C)cc3n(CC(C)C)c12

> <ID>
CHEMBL2314883

> <standard_value>
49600

> <IC50_uM>
49.6

> <Activity>
No

> <pIC50>
4.304518324

> <BCI>
0

$$$$

  SciTegic03012415362D

 19 21  0  0  0  0            999 V2000
    2.5981   -1.5000    0.0000 O   0  0
    1.2990   -0.7500    0.0000 C   0  0
    1.2990    0.7500    0.0000 C   0  0
    0.0000    1.5000    0.0000 C   0  0
    0.0000    3.0008    0.0000 C   0  0
    1.2978    3.7529    0.0000 C   0  0
    1.2954    5.2529    0.0000 C   0  0
   -0.0048    6.0009    0.0000 C   0  0
   -1.3026    5.2488    0.0000 C   0  0
   -1.3002    3.7488    0.0000 C   0  0
   -1.2990    0.7500    0.0000 O   0  0
   -1.2990   -0.7500    0.0000 C   0  0
   -2.5981   -1.5000    0.0000 C   0  0
   -3.8971   -0.7500    0.0000 O   0  0
   -2.5981   -3.0000    0.0000 C   0  0
   -3.8971   -3.7500    0.0000 O   0  0
   -1.2990   -3.7500    0.0000 C   0  0
    0.0000   -3.0000    0.0000 C   0  0
    0.0000   -1.5000    0.0000 C   0  0
  1  2  2  0
  2  3  1  0
  3  4  2  0
  4  5  1  0
  5  6  2  0
  6  7  1  0
  7  8  2  0
  8  9  1  0
  9 10  2  0
 10  5  1  0
  4 11  1  0
 11 12  1  0
 12 13  2  0
 13 14  1  0
 13 15  1  0
 15 16  1  0
 15 17  2  0
 17 18  1  0
 18 19  2  0
 19  2  1  0
 19 12  1  0
M  END
> <Smiles>
O=c1cc(-c2ccccc2)oc2c(O)c(O)ccc12

> <ID>
CHEMBL75267

> <standard_value>
50110

> <IC50_uM>
50.11

> <Activity>
No

> <pIC50>
4.300075597

> <BCI>
0

$$$$

  SciTegic03012415362D

228248  0  0  1  0            999 V2000
  -18.4237   46.4765    0.0000 C   0  0
  -17.1215   45.7321    0.0000 O   0  0
  -17.1141   44.2313    0.0000 C   0  0
  -18.4079   43.4722    0.0000 C   0  0
  -18.3974   41.9723    0.0000 C   0  0
  -17.0932   41.2313    0.0000 C   0  0
  -17.0827   39.7314    0.0000 C   0  0
  -15.7785   38.9904    0.0000 C   0  0
  -15.7660   37.4897    0.0000 C   0  0  2  0  0  0
  -14.4605   36.7509    0.0000 C   0  0
  -17.0589   36.7276    0.0000 C   0  0
  -18.3644   37.4664    0.0000 O   0  0
  -17.0464   35.2269    0.0000 O   0  0
  -18.3394   34.4648    0.0000 C   0  0
  -18.3269   32.9641    0.0000 C   0  0
  -19.6199   32.2020    0.0000 N   0  0
  -19.6074   30.7013    0.0000 C   0  0
  -18.3019   29.9625    0.0000 O   0  0
  -20.9004   29.9392    0.0000 C   0  0
  -20.8879   28.4384    0.0000 O   0  0
  -19.5824   27.6981    0.0000 C   0  0
  -18.2906   28.4606    0.0000 C   0  0
  -16.9843   27.7233    0.0000 C   0  0
  -15.6935   28.4890    0.0000 O   0  0
  -15.7102   29.9897    0.0000 C   0  0
  -14.4194   30.7554    0.0000 C   0  0
  -13.5477   30.2653    0.0000 O   0  0
  -14.4361   32.2561    0.0000 N   0  0
  -13.1453   33.0218    0.0000 C   0  0
  -13.1620   34.5225    0.0000 C   0  0
  -11.8712   35.2882    0.0000 O   0  0
  -11.8880   36.7889    0.0000 C   0  0
  -13.1955   37.5240    0.0000 O   0  0
  -10.5971   37.5546    0.0000 C   0  0  1  0  0  0
   -9.2896   36.8195    0.0000 C   0  0
  -10.6139   39.0553    0.0000 C   0  0
   -9.3248   39.8225    0.0000 C   0  0
   -9.3446   41.3223    0.0000 C   0  0
  -10.6534   42.0552    0.0000 C   0  0
  -10.6732   43.5550    0.0000 C   0  0
  -11.9820   44.2878    0.0000 C   0  0
  -12.0049   45.7885    0.0000 O   0  0
  -13.3147   46.5194    0.0000 C   0  0
  -13.2711   43.5208    0.0000 C   0  0
  -13.2513   42.0209    0.0000 C   0  0
  -11.9425   41.2881    0.0000 C   0  0
  -11.9227   39.7882    0.0000 C   0  0
  -16.9697   26.2234    0.0000 C   0  0
  -15.6643   25.4829    0.0000 C   0  0
  -15.6518   23.9822    0.0000 C   0  0
  -14.3481   23.2402    0.0000 C   0  0
  -14.3387   21.7403    0.0000 C   0  0
  -15.6330   20.9821    0.0000 C   0  0
  -15.6267   19.4813    0.0000 C   0  0
  -16.9228   18.7246    0.0000 C   0  0
  -16.9126   17.2246    0.0000 C   0  0
  -18.2064   16.4657    0.0000 C   0  0
  -18.1961   14.9657    0.0000 Cl  0  0
  -19.5106   17.2067    0.0000 C   0  0
  -20.8067   16.4501    0.0000 O   0  0
  -22.1105   17.1934    0.0000 C   0  0
  -23.4067   16.4367    0.0000 C   0  0
  -23.3990   14.9367    0.0000 O   0  0
  -24.7105   17.1800    0.0000 N   0  0
  -26.0066   16.4234    0.0000 C   0  0
  -27.3104   17.1667    0.0000 C   0  0
  -28.6066   16.4100    0.0000 O   0  0
  -29.9104   17.1534    0.0000 C   0  0
  -29.9181   18.6533    0.0000 O   0  0
  -31.2065   16.3967    0.0000 C   0  0  1  0  0  0
  -31.1988   14.8967    0.0000 C   0  0
  -32.5103   17.1400    0.0000 C   0  0
  -33.8069   16.3857    0.0000 C   0  0
  -35.1085   17.1312    0.0000 C   0  0
  -35.1136   18.6312    0.0000 C   0  0
  -36.4152   19.3768    0.0000 C   0  0
  -36.4203   20.8768    0.0000 C   0  0
  -37.7211   21.6254    0.0000 O   0  0
  -37.7240   23.1254    0.0000 C   0  0
  -35.1238   21.6312    0.0000 C   0  0
  -33.8222   20.8856    0.0000 C   0  0
  -33.8171   19.3856    0.0000 C   0  0
  -32.5155   18.6401    0.0000 C   0  0
  -19.5209   18.7067    0.0000 C   0  0
  -18.2270   19.4656    0.0000 C   0  0
  -18.2405   20.9664    0.0000 O   0  0
  -19.5465   21.7059    0.0000 C   0  0
  -20.8404   20.9455    0.0000 C   0  0
  -20.8284   19.4456    0.0000 O   0  0
  -22.1464   21.6851    0.0000 N   0  0
  -23.4403   20.9247    0.0000 C   0  0
  -24.7463   21.6643    0.0000 C   0  0
  -26.0402   20.9039    0.0000 O   0  0
  -27.3461   21.6434    0.0000 C   0  0
  -27.3582   23.1434    0.0000 O   0  0
  -28.6401   20.8830    0.0000 C   0  0  1  0  0  0
  -28.6281   19.3831    0.0000 C   0  0
  -29.9460   21.6226    0.0000 C   0  0
  -31.2404   20.8645    0.0000 C   0  0
  -32.5441   21.6063    0.0000 C   0  0
  -32.5536   23.1062    0.0000 C   0  0
  -33.8573   23.8481    0.0000 C   0  0
  -33.8668   25.3480    0.0000 C   0  0
  -35.1697   26.0929    0.0000 O   0  0
  -35.1770   27.5929    0.0000 C   0  0
  -32.5725   26.1062    0.0000 C   0  0
  -31.2687   25.3644    0.0000 C   0  0
  -31.2593   23.8644    0.0000 C   0  0
  -29.9556   23.1226    0.0000 C   0  0
  -14.3236   18.7368    0.0000 C   0  0
  -13.0289   19.4944    0.0000 C   0  0
  -11.7255   18.7520    0.0000 C   0  0
  -10.8624   19.2571    0.0000 Cl  0  0
  -11.7167   17.2521    0.0000 C   0  0
  -10.4140   16.5066    0.0000 O   0  0
  -10.4074   15.0058    0.0000 C   0  0
   -9.1047   14.2604    0.0000 C   0  0
   -8.2408   14.7640    0.0000 O   0  0
   -9.0980   12.7596    0.0000 N   0  0
   -7.7954   12.0142    0.0000 C   0  0
   -7.7887   10.5133    0.0000 C   0  0
   -6.4861    9.7679    0.0000 O   0  0
   -6.4794    8.2671    0.0000 C   0  0
   -7.7753    7.5117    0.0000 O   0  0
   -5.1768    7.5217    0.0000 C   0  0  1  0  0  0
   -3.8809    8.2770    0.0000 C   0  0
   -5.1701    6.0209    0.0000 C   0  0
   -3.8693    5.2739    0.0000 C   0  0
   -3.8656    3.7739    0.0000 C   0  0
   -5.1628    3.0208    0.0000 C   0  0
   -5.1592    1.5208    0.0000 C   0  0
   -6.4564    0.7676    0.0000 C   0  0
   -6.4559   -0.7332    0.0000 O   0  0
   -7.7542   -1.4845    0.0000 C   0  0
   -7.7573    1.5145    0.0000 C   0  0
   -7.7609    3.0145    0.0000 C   0  0
   -6.4637    3.7676    0.0000 C   0  0
   -6.4673    5.2676    0.0000 C   0  0
  -13.0113   16.4944    0.0000 C   0  0
  -14.3147   17.2368    0.0000 C   0  0
  -15.6084   16.4760    0.0000 O   0  0
  -15.5974   14.9752    0.0000 C   0  0
  -14.2926   14.2336    0.0000 C   0  0
  -12.9989   14.9927    0.0000 O   0  0
  -14.2816   12.7328    0.0000 N   0  0
  -12.9768   11.9911    0.0000 C   0  0
  -12.9658   10.4903    0.0000 C   0  0
  -11.6610    9.7487    0.0000 O   0  0
  -11.6499    8.2479    0.0000 C   0  0
  -12.9437    7.4888    0.0000 O   0  0
  -10.3452    7.5062    0.0000 C   0  0  1  0  0  0
   -9.0514    8.2654    0.0000 C   0  0
  -10.3341    6.0055    0.0000 C   0  0
   -9.0311    5.2623    0.0000 C   0  0
   -9.0231    3.7623    0.0000 C   0  0
  -10.3182    3.0054    0.0000 C   0  0
  -10.3102    1.5054    0.0000 C   0  0
  -11.6052    0.7485    0.0000 C   0  0
  -11.6003   -0.7523    0.0000 O   0  0
  -12.8964   -1.5074    0.0000 C   0  0
  -12.9082    1.4916    0.0000 C   0  0
  -12.9162    2.9916    0.0000 C   0  0
  -11.6212    3.7485    0.0000 C   0  0
  -11.6292    5.2485    0.0000 C   0  0
  -16.9367   21.7240    0.0000 C   0  0
  -16.9461   23.2239    0.0000 C   0  0
  -14.3706   26.2437    0.0000 C   0  0
  -14.3845   27.7437    0.0000 C   0  0
  -13.0925   28.5058    0.0000 C   0  0
  -13.1019   29.5057    0.0000 Cl  0  0
  -11.7865   27.7679    0.0000 C   0  0
  -10.4923   28.5278    0.0000 O   0  0
   -9.1866   27.7877    0.0000 C   0  0
   -7.8924   28.5476    0.0000 C   0  0
   -7.9038   30.0475    0.0000 O   0  0
   -6.5867   27.8075    0.0000 N   0  0
   -5.2925   28.5673    0.0000 C   0  0
   -3.9868   27.8272    0.0000 C   0  0
   -2.6926   28.5871    0.0000 O   0  0
   -1.3869   27.8470    0.0000 C   0  0
   -1.3755   26.3471    0.0000 O   0  0
   -0.0927   28.6069    0.0000 C   0  0  1  0  0  0
   -0.1041   30.1068    0.0000 C   0  0
    1.2130   27.8668    0.0000 C   0  0
    2.5077   28.6243    0.0000 C   0  0
    3.8111   27.8820    0.0000 C   0  0
    3.8199   26.3820    0.0000 C   0  0
    5.1233   25.6397    0.0000 C   0  0
    5.1322   24.1397    0.0000 C   0  0
    6.4348   23.3943    0.0000 O   0  0
    6.4415   21.8943    0.0000 C   0  0
    3.8376   23.3821    0.0000 C   0  0
    2.5341   24.1244    0.0000 C   0  0
    2.5253   25.6244    0.0000 C   0  0
    1.2219   26.3667    0.0000 C   0  0
  -11.7725   26.2680    0.0000 C   0  0
  -13.0645   25.5059    0.0000 C   0  0
  -13.0473   24.0052    0.0000 O   0  0
  -11.7395   23.2688    0.0000 C   0  0
  -10.4475   24.0325    0.0000 C   0  0
  -10.4632   25.5324    0.0000 O   0  0
   -9.1397   23.2961    0.0000 N   0  0
   -7.8476   24.0598    0.0000 C   0  0
   -6.5399   23.3235    0.0000 C   0  0
   -5.2478   24.0871    0.0000 O   0  0
   -3.9400   23.3508    0.0000 C   0  0
   -3.9243   21.8508    0.0000 O   0  0
   -2.6480   24.1144    0.0000 C   0  0  1  0  0  0
   -2.6585   25.1143    0.0000 C   0  0
   -1.3402   23.3781    0.0000 C   0  0
   -0.0477   24.1394    0.0000 C   0  0
    1.2579   23.4008    0.0000 C   0  0
    1.2710   21.9009    0.0000 C   0  0
    2.5766   21.1623    0.0000 C   0  0
    2.5898   19.6624    0.0000 C   0  0
    3.8946   18.9207    0.0000 O   0  0
    3.9056   17.4207    0.0000 C   0  0
    1.2974   18.9010    0.0000 C   0  0
   -0.0082   19.6395    0.0000 C   0  0
   -0.0214   21.1395    0.0000 C   0  0
   -1.3269   21.8780    0.0000 C   0  0
  -18.2614   25.4608    0.0000 C   0  0
  -19.5677   26.1981    0.0000 C   0  0
  -20.8594   25.4355    0.0000 Cl  0  0
  -14.4847   39.7495    0.0000 C   0  0
  -14.4951   41.2495    0.0000 C   0  0
  -15.7994   41.9904    0.0000 C   0  0
  -15.8098   43.4903    0.0000 C   0  0
  1  2  1  0
  2  3  1  0
  3  4  2  0
  4  5  1  0
  5  6  2  0
  6  7  1  0
  7  8  2  0
  8  9  1  0
  9 10  1  6
  9 11  1  0
 11 12  2  0
 11 13  1  0
 13 14  1  0
 14 15  1  0
 15 16  1  0
 16 17  1  0
 17 18  2  0
 17 19  1  0
 19 20  1  0
 20 21  1  0
 21 22  2  0
 22 23  1  0
 23 24  1  0
 24 25  1  0
 25 26  1  0
 26 27  2  0
 26 28  1  0
 28 29  1  0
 29 30  1  0
 30 31  1  0
 31 32  1  0
 32 33  2  0
 32 34  1  0
 34 35  1  6
 34 36  1  0
 36 37  2  0
 37 38  1  0
 38 39  2  0
 39 40  1  0
 40 41  2  0
 41 42  1  0
 42 43  1  0
 41 44  1  0
 44 45  2  0
 45 46  1  0
 46 39  1  0
 46 47  2  0
 47 36  1  0
 23 48  2  0
 48 49  1  0
 49 50  1  0
 50 51  2  0
 51 52  1  0
 52 53  2  0
 53 54  1  0
 54 55  1  0
 55 56  2  0
 56 57  1  0
 57 58  1  0
 57 59  2  0
 59 60  1  0
 60 61  1  0
 61 62  1  0
 62 63  2  0
 62 64  1  0
 64 65  1  0
 65 66  1  0
 66 67  1  0
 67 68  1  0
 68 69  2  0
 68 70  1  0
 70 71  1  1
 70 72  1  0
 72 73  2  0
 73 74  1  0
 74 75  2  0
 75 76  1  0
 76 77  2  0
 77 78  1  0
 78 79  1  0
 77 80  1  0
 80 81  2  0
 81 82  1  0
 82 75  1  0
 82 83  2  0
 83 72  1  0
 59 84  1  0
 84 85  2  0
 85 55  1  0
 85 86  1  0
 86 87  1  0
 87 88  1  0
 88 89  2  0
 88 90  1  0
 90 91  1  0
 91 92  1  0
 92 93  1  0
 93 94  1  0
 94 95  2  0
 94 96  1  0
 96 97  1  1
 96 98  1  0
 98 99  2  0
 99100  1  0
100101  2  0
101102  1  0
102103  2  0
103104  1  0
104105  1  0
103106  1  0
106107  2  0
107108  1  0
108101  1  0
108109  2  0
109 98  1  0
 54110  1  0
110111  2  0
111112  1  0
112113  1  0
112114  2  0
114115  1  0
115116  1  0
116117  1  0
117118  2  0
117119  1  0
119120  1  0
120121  1  0
121122  1  0
122123  1  0
123124  2  0
123125  1  0
125126  1  1
125127  1  0
127128  2  0
128129  1  0
129130  2  0
130131  1  0
131132  2  0
132133  1  0
133134  1  0
132135  1  0
135136  2  0
136137  1  0
137130  1  0
137138  2  0
138127  1  0
114139  1  0
139140  2  0
140110  1  0
140141  1  0
141142  1  0
142143  1  0
143144  2  0
143145  1  0
145146  1  0
146147  1  0
147148  1  0
148149  1  0
149150  2  0
149151  1  0
151152  1  1
151153  1  0
153154  2  0
154155  1  0
155156  2  0
156157  1  0
157158  2  0
158159  1  0
159160  1  0
158161  1  0
161162  2  0
162163  1  0
163156  1  0
163164  2  0
164153  1  0
 53165  1  0
165166  2  0
166 50  1  0
 49167  1  0
167168  2  0
168169  1  0
169170  1  0
169171  2  0
171172  1  0
172173  1  0
173174  1  0
174175  2  0
174176  1  0
176177  1  0
177178  1  0
178179  1  0
179180  1  0
180181  2  0
180182  1  0
182183  1  1
182184  1  0
184185  2  0
185186  1  0
186187  2  0
187188  1  0
188189  2  0
189190  1  0
190191  1  0
189192  1  0
192193  2  0
193194  1  0
194187  1  0
194195  2  0
195184  1  0
171196  1  0
196197  2  0
197167  1  0
197198  1  0
198199  1  0
199200  1  0
200201  2  0
200202  1  0
202203  1  0
203204  1  0
204205  1  0
205206  1  0
206207  2  0
206208  1  0
208209  1  1
208210  1  0
210211  2  0
211212  1  0
212213  2  0
213214  1  0
214215  2  0
215216  1  0
216217  1  0
215218  1  0
218219  2  0
219220  1  0
220213  1  0
220221  2  0
221210  1  0
 48222  1  0
222223  2  0
223 21  1  0
223224  1  0
  8225  1  0
225226  2  0
226227  1  0
227  6  1  0
227228  2  0
228  3  1  0
M  END
> <Smiles>
COc1ccc2cc([C@H](C)C(=O)OCCNC(=O)COc3cc(OCC(=O)NCCOC(=O)[C@@H](C)c4ccc5cc(OC)ccc5c4)c(C(c4ccc(C(c5cc(Cl)c(OCC(=O)NCCOC(=O)[C@@H](C)c6ccc7cc(OC)ccc7c6)cc5OCC(=O)NCCOC(=O)[C@@H](C)c5ccc6cc(OC)ccc6c5)c5c
c(Cl)c(OCC(=O)NCCOC(=O)[C@@H](C)c6ccc7cc(OC)ccc7c6)cc5OCC(=O)NCCOC(=O)[C@@H](C)c5ccc6cc(OC)ccc6c5)cc4)c4cc(Cl)c(OCC(=O)NCCOC(=O)[C@@H](C)c5ccc6cc(OC)ccc6c5)cc4OCC(=O)NCCOC(=O)[C@@H](C)c4ccc5cc(OC)ccc5
c4)cc3Cl)ccc2c1

> <ID>
CHEMBL4636406

> <standard_value>
50300

> <IC50_uM>
50.3

> <Activity>
No

> <pIC50>
4.298432015

> <BCI>
0

$$$$

  SciTegic03012415362D

 32 34  0  0  0  0            999 V2000
    3.8983   -0.7459    0.0000 C   0  0
    2.6003   -1.4977    0.0000 O   0  0
    1.2990   -0.7500    0.0000 C   0  0
    1.2990    0.7500    0.0000 C   0  0
    0.0000    1.5000    0.0000 C   0  0
   -0.0031    3.0008    0.0000 N   0  0
   -1.3039    3.7494    0.0000 C   0  0
   -2.6017    2.9971    0.0000 O   0  0
   -1.3070    5.2502    0.0000 C   0  0
   -0.0080    6.0003    0.0000 C   0  0
   -0.0080    7.5003    0.0000 C   0  0
   -1.3071    8.2503    0.0000 C   0  0
   -2.6061    7.5003    0.0000 C   0  0
   -2.6061    6.0003    0.0000 C   0  0
   -3.9074    5.2525    0.0000 N   0  0
   -5.2060    6.0048    0.0000 C   0  0
   -6.5077    5.2594    0.0000 C   0  0
   -7.8042    6.0139    0.0000 C   0  0
   -7.7990    7.5138    0.0000 C   0  0
   -6.4974    8.2593    0.0000 C   0  0
   -6.4922    9.7602    0.0000 C   0  0
   -7.7881   10.5155    0.0000 F   0  0
   -5.1903   10.5052    0.0000 F   0  0
   -6.4863   11.2601    0.0000 F   0  0
   -5.2009    7.5048    0.0000 C   0  0
   -1.2990    0.7500    0.0000 C   0  0
   -1.2990   -0.7500    0.0000 C   0  0
   -2.6003   -1.4978    0.0000 O   0  0
   -3.8983   -0.7459    0.0000 C   0  0
    0.0000   -1.5000    0.0000 C   0  0
    0.0031   -3.0008    0.0000 O   0  0
    1.3032   -3.7490    0.0000 C   0  0
  1  2  1  0
  2  3  1  0
  3  4  2  0
  4  5  1  0
  5  6  1  0
  6  7  1  0
  7  8  2  0
  7  9  1  0
  9 10  2  0
 10 11  1  0
 11 12  2  0
 12 13  1  0
 13 14  2  0
 14  9  1  0
 14 15  1  0
 15 16  1  0
 16 17  2  0
 17 18  1  0
 18 19  2  0
 19 20  1  0
 20 21  1  0
 21 22  1  0
 21 23  1  0
 21 24  1  0
 20 25  2  0
 25 16  1  0
  5 26  2  0
 26 27  1  0
 27 28  1  0
 28 29  1  0
 27 30  2  0
 30  3  1  0
 30 31  1  0
 31 32  1  0
M  END
> <Smiles>
COc1cc(NC(=O)c2ccccc2Nc2cccc(C(F)(F)F)c2)cc(OC)c1OC

> <ID>
CHEMBL5094553

> <standard_value>
50730

> <IC50_uM>
50.73

> <Activity>
No

> <pIC50>
4.294735138

> <BCI>
0

$$$$

  SciTegic03012415362D

 24 28  0  0  1  0            999 V2000
   -0.9454   -6.7218    0.0000 C   0  0
   -0.0279   -5.5351    0.0000 C   0  0
   -0.5963   -4.1461    0.0000 C   0  0
    0.2851   -2.9666    0.0000 C   0  0  3  0  0  0
    1.7758   -3.1329    0.0000 O   0  0
    2.3947   -1.7666    0.0000 C   0  0
    1.2990   -0.7500    0.0000 C   0  0  2  0  0  0
    1.2990    0.7500    0.0000 C   0  0
    0.0000    1.5000    0.0000 C   0  0  1  0  0  0
   -1.2990    0.7500    0.0000 C   0  0
   -1.2990   -0.7500    0.0000 C   0  0
   -2.5969   -1.5137    0.0000 C   0  0
   -3.8988   -0.7687    0.0000 O   0  0
   -2.5976   -3.0137    0.0000 C   0  0
   -3.8970   -3.7631    0.0000 C   0  0
   -5.1957   -3.0124    0.0000 O   0  0
   -3.8977   -5.2631    0.0000 C   0  0
   -2.5990   -6.0137    0.0000 C   0  0
   -1.2996   -5.2643    0.0000 C   0  0
   -1.2989   -3.7643    0.0000 C   0  0
    0.0005   -3.0149    0.0000 O   0  0
    0.0000   -1.5000    0.0000 C   0  0  2  0  0  0
   -1.2151   -0.4213    0.0000 C   0  0
   -2.7149   -0.3978    0.0000 O   0  0
  1  2  2  0
  2  3  1  0
  4  3  1  4
  4  5  1  0
  5  6  1  0
  7  6  1  1
  7  8  1  0
  9  8  1  6
  9 10  1  0
 10 11  2  0
 11 12  1  0
 12 13  2  0
 12 14  1  0
 14 15  2  0
 15 16  1  0
 15 17  1  0
 17 18  2  0
 18 19  1  0
 19 20  2  0
 20 14  1  0
 20 21  1  0
 22 21  1  6
 22 11  1  0
 22  7  1  0
 22  4  1  0
  9 23  1  0
 23  4  1  0
 23 24  2  0
M  END
> <Smiles>
C=CCC12OC[C@@H]3C[C@@H](C=C4C(=O)c5c(O)cccc5O[C@]431)C2=O

> <ID>
CHEMBL2336603

> <standard_value>
51700

> <IC50_uM>
51.7

> <Activity>
No

> <pIC50>
4.286509457

> <BCI>
0

$$$$

  SciTegic03012415362D

 49 54  0  0  0  0            999 V2000
    3.8983   -0.7459    0.0000 C   0  0
    2.6003   -1.4977    0.0000 O   0  0
    1.2990   -0.7500    0.0000 C   0  0
    1.2990    0.7500    0.0000 C   0  0
    0.0000    1.5000    0.0000 C   0  0
    0.0000    3.0000    0.0000 N   0  0
   -1.2991    3.7500    0.0000 C   0  0
   -1.2991    5.2507    0.0000 N   0  0
   -0.0012    6.0029    0.0000 C   0  0
   -0.0036    7.5029    0.0000 C   0  0
   -1.3039    8.2509    0.0000 N   0  0
   -1.3093    9.7517    0.0000 C   0  0
   -0.0128   10.5060    0.0000 O   0  0
   -2.6114   10.4982    0.0000 C   0  0
   -2.6168   11.9990    0.0000 O   0  0
   -3.9188   12.7455    0.0000 C   0  0
   -3.9243   14.2463    0.0000 C   0  0
   -2.6278   15.0006    0.0000 O   0  0
   -5.2263   14.9928    0.0000 N   0  0
   -5.2340   16.4928    0.0000 C   0  0
   -6.5368   17.2362    0.0000 C   0  0
   -7.8321   16.4796    0.0000 N   0  0
   -9.1355   17.2234    0.0000 C   0  0
   -9.1456   18.7235    0.0000 N   0  0
  -10.4496   19.4648    0.0000 C   0  0
  -10.4595   20.9648    0.0000 N   0  0
  -11.7436   18.7062    0.0000 C   0  0
  -13.0476   19.4476    0.0000 C   0  0
  -14.3416   18.6890    0.0000 C   0  0
  -15.6448   19.4334    0.0000 O   0  0
  -15.6526   20.9334    0.0000 C   0  0
  -14.3317   17.1890    0.0000 C   0  0
  -15.6248   16.4273    0.0000 O   0  0
  -15.6127   14.9273    0.0000 C   0  0
  -13.0277   16.4476    0.0000 C   0  0
  -11.7336   17.2062    0.0000 C   0  0
  -10.4297   16.4649    0.0000 N   0  0
   -7.8245   14.9797    0.0000 C   0  0
   -6.5217   14.2362    0.0000 C   0  0
   -2.6017    7.4988    0.0000 C   0  0
   -2.5993    5.9988    0.0000 C   0  0
   -2.5981    3.0000    0.0000 N   0  0
   -2.5981    1.5000    0.0000 C   0  0
   -3.8971    0.7500    0.0000 N   0  0
   -1.2990    0.7500    0.0000 C   0  0
   -1.2990   -0.7500    0.0000 C   0  0
    0.0000   -1.5000    0.0000 C   0  0
   -0.0031   -3.0008    0.0000 O   0  0
   -1.3032   -3.7490    0.0000 C   0  0
  1  2  1  0
  2  3  1  0
  3  4  2  0
  4  5  1  0
  5  6  2  0
  6  7  1  0
  7  8  1  0
  8  9  1  0
  9 10  1  0
 10 11  1  0
 11 12  1  0
 12 13  2  0
 12 14  1  0
 14 15  1  0
 15 16  1  0
 16 17  1  0
 17 18  2  0
 17 19  1  0
 19 20  1  0
 20 21  1  0
 21 22  1  0
 22 23  1  0
 23 24  2  0
 24 25  1  0
 25 26  1  0
 25 27  2  0
 27 28  1  0
 28 29  2  0
 29 30  1  0
 30 31  1  0
 29 32  1  0
 32 33  1  0
 33 34  1  0
 32 35  2  0
 35 36  1  0
 36 27  1  0
 36 37  2  0
 37 23  1  0
 22 38  1  0
 38 39  1  0
 39 19  1  0
 11 40  1  0
 40 41  1  0
 41  8  1  0
  7 42  2  0
 42 43  1  0
 43 44  1  0
 43 45  2  0
 45  5  1  0
 45 46  1  0
 46 47  2  0
 47  3  1  0
 47 48  1  0
 48 49  1  0
M  END
> <Smiles>
COc1cc2nc(N3CCN(C(=O)COCC(=O)N4CCN(c5nc(N)c6cc(OC)c(OC)cc6n5)CC4)CC3)nc(N)c2cc1OC

> <ID>
CHEMBL4758346

> <standard_value>
51860

> <IC50_uM>
51.86

> <Activity>
No

> <pIC50>
4.285167488

> <BCI>
0

$$$$

  SciTegic03012415362D

 29 31  0  0  0  0            999 V2000
    3.8976   -0.7553    0.0000 O   0  0
    2.5973   -1.5031    0.0000 C   0  0
    1.2990   -0.7500    0.0000 C   0  0
    1.2990    0.7500    0.0000 C   0  0
    0.0000    1.5000    0.0000 C   0  0
   -1.2990    0.7500    0.0000 C   0  0
   -2.7248    1.2135    0.0000 N   0  0
   -3.6065    0.0000    0.0000 C   0  0
   -5.1047   -0.0031    0.0000 N   0  0
   -5.8532   -1.3040    0.0000 C   0  0
   -5.1009   -2.6017    0.0000 O   0  0
   -7.3541   -1.3071    0.0000 C   0  0
   -8.1022   -2.6072    0.0000 F   0  0
   -8.8541   -1.3095    0.0000 F   0  0
   -8.1063   -0.0094    0.0000 F   0  0
   -2.7248   -1.2135    0.0000 C   0  0
   -1.2990   -0.7500    0.0000 N   0  0
    0.0000   -1.5000    0.0000 C   0  0
    2.5951   -3.0039    0.0000 C   0  0
    1.2935   -3.7495    0.0000 C   0  0
    1.2883   -5.2495    0.0000 C   0  0
   -0.0140   -5.9954    0.0000 C   0  0
   -1.3110   -5.2418    0.0000 F   0  0
   -0.0187   -7.4954    0.0000 F   0  0
   -1.3153   -6.7416    0.0000 F   0  0
    2.5847   -6.0040    0.0000 C   0  0
    3.8864   -5.2585    0.0000 C   0  0
    3.8915   -3.7585    0.0000 C   0  0
    5.1932   -3.0130    0.0000 F   0  0
  1  2  2  0
  2  3  1  0
  3  4  1  0
  4  5  2  0
  5  6  1  0
  6  7  2  0
  7  8  1  0
  8  9  1  0
  9 10  1  0
 10 11  2  0
 10 12  1  0
 12 13  1  0
 12 14  1  0
 12 15  1  0
  8 16  2  0
 16 17  1  0
 17  6  1  0
 17 18  1  0
 18  3  2  0
  2 19  1  0
 19 20  2  0
 20 21  1  0
 21 22  1  0
 22 23  1  0
 22 24  1  0
 22 25  1  0
 21 26  2  0
 26 27  1  0
 27 28  2  0
 28 19  1  0
 28 29  1  0
M  END
> <Smiles>
O=C(c1ccc2nc(NC(=O)C(F)(F)F)cn2c1)c1cc(C(F)(F)F)ccc1F

> <ID>
CHEMBL1086740

> <standard_value>
51900

> <IC50_uM>
51.9

> <Activity>
No

> <pIC50>
4.284832642

> <BCI>
0

$$$$

  SciTegic03012415362D

 29 31  0  0  0  0            999 V2000
    3.8976   -0.7553    0.0000 O   0  0
    2.5973   -1.5031    0.0000 C   0  0
    1.2990   -0.7500    0.0000 C   0  0
    1.2990    0.7500    0.0000 C   0  0
    0.0000    1.5000    0.0000 C   0  0
   -1.2990    0.7500    0.0000 C   0  0
   -2.7248    1.2135    0.0000 N   0  0
   -3.6065    0.0000    0.0000 C   0  0
   -5.1047   -0.0031    0.0000 N   0  0
   -5.8532   -1.3040    0.0000 C   0  0
   -5.1009   -2.6017    0.0000 O   0  0
   -7.3541   -1.3071    0.0000 C   0  0
   -8.1022   -2.6072    0.0000 F   0  0
   -8.8541   -1.3095    0.0000 F   0  0
   -8.1063   -0.0094    0.0000 F   0  0
   -2.7248   -1.2135    0.0000 C   0  0
   -1.2990   -0.7500    0.0000 N   0  0
    0.0000   -1.5000    0.0000 C   0  0
    2.5951   -3.0039    0.0000 C   0  0
    1.2935   -3.7495    0.0000 C   0  0
    1.2883   -5.2495    0.0000 C   0  0
    2.5847   -6.0040    0.0000 C   0  0
    2.5796   -7.5048    0.0000 C   0  0
    1.2784   -8.2511    0.0000 F   0  0
    3.8762   -8.2589    0.0000 F   0  0
    2.5751   -9.0048    0.0000 F   0  0
    3.8864   -5.2585    0.0000 C   0  0
    3.8915   -3.7585    0.0000 C   0  0
    5.1932   -3.0130    0.0000 F   0  0
  1  2  2  0
  2  3  1  0
  3  4  1  0
  4  5  2  0
  5  6  1  0
  6  7  2  0
  7  8  1  0
  8  9  1  0
  9 10  1  0
 10 11  2  0
 10 12  1  0
 12 13  1  0
 12 14  1  0
 12 15  1  0
  8 16  2  0
 16 17  1  0
 17  6  1  0
 17 18  1  0
 18  3  2  0
  2 19  1  0
 19 20  2  0
 20 21  1  0
 21 22  2  0
 22 23  1  0
 23 24  1  0
 23 25  1  0
 23 26  1  0
 22 27  1  0
 27 28  2  0
 28 19  1  0
 28 29  1  0
M  END
> <Smiles>
O=C(c1ccc2nc(NC(=O)C(F)(F)F)cn2c1)c1ccc(C(F)(F)F)cc1F

> <ID>
CHEMBL1088159

> <standard_value>
52300

> <IC50_uM>
52.3

> <Activity>
No

> <pIC50>
4.281498311

> <BCI>
0

$$$$

  SciTegic03012415362D

 21 21  0  0  0  0            999 V2000
    6.4848   -8.2644    0.0000 C   0  0
    5.1873   -7.5117    0.0000 C   0  0
    5.1894   -6.0109    0.0000 C   0  0
    6.4897   -5.2632    0.0000 O   0  0
    3.8912   -5.2578    0.0000 O   0  0
    3.8933   -3.7570    0.0000 C   0  0
    2.5951   -3.0039    0.0000 C   0  0
    2.5973   -1.5031    0.0000 C   0  0
    1.2990   -0.7500    0.0000 C   0  0
    1.2990    0.7500    0.0000 C   0  0
    0.0000    1.5000    0.0000 C   0  0
   -1.2990    0.7500    0.0000 C   0  0
   -2.5973    1.5031    0.0000 O   0  0
   -2.5951    3.0039    0.0000 C   0  0
   -1.2948    3.7516    0.0000 O   0  0
   -3.8933    3.7570    0.0000 C   0  0
   -3.8912    5.2570    0.0000 C   0  0
   -1.2990   -0.7500    0.0000 C   0  0
   -2.5972   -1.5031    0.0000 O   0  0
   -2.5951   -3.0031    0.0000 C   0  0
    0.0000   -1.5000    0.0000 C   0  0
  1  2  1  0
  2  3  1  0
  3  4  2  0
  3  5  1  0
  5  6  1  0
  6  7  1  0
  7  8  2  0
  8  9  1  0
  9 10  2  0
 10 11  1  0
 11 12  2  0
 12 13  1  0
 13 14  1  0
 14 15  2  0
 14 16  1  0
 16 17  1  0
 12 18  1  0
 18 19  1  0
 19 20  1  0
 18 21  2  0
 21  9  1  0
M  END
> <Smiles>
CCC(=O)OC/C=C/c1ccc(OC(=O)CC)c(OC)c1

> <ID>
CHEMBL3588940

> <standard_value>
52600

> <IC50_uM>
52.6

> <Activity>
No

> <pIC50>
4.279014256

> <BCI>
0

$$$$

  SciTegic03012415362D

 21 23  0  0  0  0            999 V2000
    2.5951   -3.0031    0.0000 C   0  0
    2.5973   -1.5031    0.0000 O   0  0
    1.2990   -0.7500    0.0000 C   0  0
    1.2990    0.7500    0.0000 C   0  0
    0.0000    1.5000    0.0000 C   0  0
    0.0000    3.0000    0.0000 O   0  0
   -1.2990    0.7500    0.0000 C   0  0
   -2.5981    1.5000    0.0000 C   0  0
   -2.5981    3.0000    0.0000 O   0  0
   -3.8971    0.7500    0.0000 C   0  0
   -5.1962    1.5000    0.0000 C   0  0
   -5.1993    3.0008    0.0000 O   0  0
   -6.4994    3.7489    0.0000 C   0  0
   -6.4952    0.7500    0.0000 C   0  0
   -7.7942    1.4999    0.0000 O   0  0
   -6.4952   -0.7500    0.0000 C   0  0
   -5.1961   -1.5000    0.0000 C   0  0
   -3.8971   -0.7500    0.0000 C   0  0
   -2.5981   -1.5000    0.0000 O   0  0
   -1.2990   -0.7500    0.0000 C   0  0
    0.0000   -1.5000    0.0000 C   0  0
  1  2  1  0
  2  3  1  0
  3  4  2  0
  4  5  1  0
  5  6  1  0
  5  7  2  0
  7  8  1  0
  8  9  2  0
  8 10  1  0
 10 11  2  0
 11 12  1  0
 12 13  1  0
 11 14  1  0
 14 15  1  0
 14 16  2  0
 16 17  1  0
 17 18  2  0
 18 10  1  0
 18 19  1  0
 19 20  1  0
 20  7  1  0
 20 21  2  0
 21  3  1  0
M  END
> <Smiles>
COc1cc(O)c2c(=O)c3c(OC)c(O)ccc3oc2c1

> <ID>
CHEMBL467590

> <standard_value>
53200

> <IC50_uM>
53.2

> <Activity>
No

> <pIC50>
4.274088368

> <BCI>
0

$$$$

  SciTegic03012415362D

 21 24  0  0  0  0            999 V2000
    2.5800    0.0305    0.0000 C   0  0
    1.2990   -0.7500    0.0000 C   0  0
    1.2638   -2.2496    0.0000 C   0  0
    1.2990    0.7500    0.0000 C   0  0
    0.0000    1.5000    0.0000 C   0  0
    0.0000    3.0000    0.0000 O   0  0
   -1.2990    0.7500    0.0000 C   0  0
   -2.7248    1.2135    0.0000 C   0  0
   -3.6065    0.0000    0.0000 C   0  0
   -2.7248   -1.2135    0.0000 N   0  0
   -1.2990   -0.7500    0.0000 C   0  0
    0.0000   -1.5000    0.0000 C   0  0
   -3.3339   -2.5831    0.0000 C   0  0
   -4.8256   -2.7399    0.0000 C   0  0
   -5.7073   -1.5264    0.0000 C   0  0
   -7.1991   -1.6832    0.0000 C   0  0
   -8.0808   -0.4697    0.0000 C   0  0
   -9.5726   -0.6265    0.0000 Br  0  0
   -7.4707    0.9006    0.0000 C   0  0
   -5.9789    1.0574    0.0000 C   0  0
   -5.0972   -0.1561    0.0000 C   0  0
  1  2  1  0
  2  3  1  0
  2  4  1  0
  4  5  1  0
  5  6  2  0
  5  7  1  0
  7  8  1  0
  8  9  2  0
  9 10  1  0
 10 11  1  0
 11  7  2  0
 11 12  1  0
 12  2  1  0
 10 13  1  0
 13 14  1  0
 14 15  1  0
 15 16  2  0
 16 17  1  0
 17 18  1  0
 17 19  2  0
 19 20  1  0
 20 21  2  0
 21 15  1  0
 21  9  1  0
M  END
> <Smiles>
CC1(C)CC(=O)c2cc3n(c2C1)CCc1cc(Br)ccc1-3

> <ID>
CHEMBL460205

> <standard_value>
53330

> <IC50_uM>
53.33

> <Activity>
No

> <pIC50>
4.273028416

> <BCI>
0

$$$$

  SciTegic03012415362D

 28 31  0  0  0  0            999 V2000
   -1.1509   -2.6325    0.0000 C   0  0
    0.3114   -2.9665    0.0000 C   0  0
    0.7960   -4.3861    0.0000 C   0  0
    1.8032   -3.1233    0.0000 C   0  0
    2.4133   -1.7530    0.0000 N   0  0
    1.2990   -0.7500    0.0000 C   0  0
    1.2990    0.7500    0.0000 C   0  0
    0.0000    1.5000    0.0000 C   0  0
   -0.0031    3.0008    0.0000 N   0  0
   -1.3039    3.7494    0.0000 C   0  0
   -2.6017    2.9971    0.0000 O   0  0
   -1.3070    5.2502    0.0000 C   0  0
   -0.0080    6.0003    0.0000 C   0  0
   -0.0080    7.5003    0.0000 C   0  0
   -1.3071    8.2503    0.0000 C   0  0
   -2.6061    7.5003    0.0000 N   0  0
   -2.6061    6.0003    0.0000 C   0  0
   -3.9074    5.2525    0.0000 N   0  0
   -5.2060    6.0048    0.0000 C   0  0
   -6.5073    5.2571    0.0000 C   0  0
   -7.8064    6.0070    0.0000 C   0  0
   -9.1055    5.2571    0.0000 C   0  0
   -9.1055    3.7571    0.0000 N   0  0
   -7.8065    3.0070    0.0000 C   0  0
   -6.5075    3.7570    0.0000 C   0  0
   -1.2990    0.7500    0.0000 C   0  0
   -1.2990   -0.7500    0.0000 C   0  0
    0.0000   -1.5000    0.0000 C   0  0
  1  2  1  0
  2  3  1  0
  2  4  1  0
  4  5  1  0
  5  6  1  0
  6  7  2  0
  7  8  1  0
  8  9  1  0
  9 10  1  0
 10 11  2  0
 10 12  1  0
 12 13  2  0
 13 14  1  0
 14 15  2  0
 15 16  1  0
 16 17  2  0
 17 12  1  0
 17 18  1  0
 18 19  1  0
 19 20  1  0
 20 21  2  0
 21 22  1  0
 22 23  2  0
 23 24  1  0
 24 25  2  0
 25 20  1  0
  8 26  2  0
 26 27  1  0
 27 28  2  0
 28  6  1  0
 28  2  1  0
M  END
> <Smiles>
CC1(C)CNc2cc(NC(=O)c3cccnc3NCc3ccncc3)ccc21

> <ID>
CHEMBL572881

> <standard_value>
53530.58

> <IC50_uM>
53.53058

> <Activity>
No

> <pIC50>
4.271398051

> <BCI>
0

$$$$

  SciTegic03012415362D

 29 31  0  0  1  0            999 V2000
    2.5981   -1.5000    0.0000 C   0  0
    1.2990   -0.7500    0.0000 C   0  0
    1.2990    0.7500    0.0000 C   0  0
    0.0000    1.5000    0.0000 C   0  0
   -1.2990    0.7500    0.0000 C   0  0
   -1.2990   -0.7500    0.0000 C   0  0  2  0  0  0
   -2.5981   -1.5000    0.0000 C   0  0  1  0  0  0
   -3.8783   -2.2816    0.0000 C   0  0
   -2.5616   -0.0200    0.0000 C   0  0
   -3.8225    0.7940    0.0000 C   0  0
   -3.7490    2.2930    0.0000 C   0  0  1  0  0  0
   -5.0094    3.1062    0.0000 C   0  0
   -2.5255    1.4610    0.0000 C   0  0
   -1.1911    2.1462    0.0000 C   0  0
   -1.1173    3.6444    0.0000 C   0  0  2  0  0  0
    0.2168    4.3318    0.0000 C   0  0  2  0  0  0
    0.2881    5.8301    0.0000 C   0  0
    1.4797    3.5209    0.0000 C   0  0
    1.4084    2.0226    0.0000 O   0  0
    2.8139    4.2083    0.0000 O   0  0
    4.0761    3.3978    0.0000 C   0  0
   -2.3779    4.4574    0.0000 O   0  0
   -3.7123    3.7722    0.0000 O   0  0
   -2.5981   -3.0000    0.0000 C   0  0  2  0  0  0
   -3.8971   -3.7500    0.0000 C   0  0
   -1.2990   -3.7500    0.0000 C   0  0
    0.0000   -3.0000    0.0000 C   0  0
    0.0000   -1.5000    0.0000 C   0  0  1  0  0  0
    1.2990   -2.2500    0.0000 C   0  0
  1  2  2  0
  2  3  1  0
  3  4  1  0
  4  5  1  0
  6  5  1  1
  6  7  1  0
  7  8  1  1
  7  9  1  0
  9 10  1  0
 10 11  1  0
 11 12  1  1
 11 13  1  0
 13 14  1  0
 15 14  1  1
 15 16  1  0
 16 17  1  6
 16 18  1  0
 18 19  2  0
 18 20  1  0
 20 21  1  0
 15 22  1  0
 22 23  1  0
 23 11  1  0
  7 24  1  0
 24 25  1  1
 24 26  1  0
 26 27  1  0
 27 28  1  0
 28  2  1  0
 28  6  1  0
 28 29  1  1
M  END
> <Smiles>
C=C1CCC[C@@H]2[C@@](C)(CC[C@@]3(C)CC[C@H]([C@H](C)C(=O)OC)OO3)[C@H](C)CC[C@@]12C

> <ID>
CHEMBL2419355

> <standard_value>
54000

> <IC50_uM>
54

> <Activity>
No

> <pIC50>
4.26760624

> <BCI>
0

$$$$

  SciTegic03012415362D

 19 20  0  0  1  0            999 V2000
    2.5981   -1.5000    0.0000 O   0  0
    1.2990   -0.7500    0.0000 C   0  0
    1.2990    0.7500    0.0000 N   0  0
    0.0000    1.5000    0.0000 C   0  0
    0.0000    3.0000    0.0000 O   0  0
   -1.2990    0.7500    0.0000 N   0  0
   -2.5987    1.5004    0.0000 C   0  0  2  0  0  0
   -3.9492    0.8772    0.0000 O   0  0
   -4.9546    1.9903    0.0000 C   0  0  2  0  0  0
   -6.4441    1.8282    0.0000 C   0  0
   -7.0500    0.4561    0.0000 O   0  0
   -4.2067    3.2905    0.0000 C   0  0  1  0  0  0
   -4.8190    4.6599    0.0000 O   0  0
   -2.7390    2.9810    0.0000 C   0  0  2  0  0  0
   -1.6199    3.9798    0.0000 F   0  0
   -1.2990   -0.7500    0.0000 C   0  0
    0.0000   -1.5000    0.0000 C   0  0
   -0.0031   -3.0008    0.0000 O   0  0
   -1.3032   -3.7490    0.0000 O   0  0
  1  2  2  0
  2  3  1  0
  3  4  1  0
  4  5  2  0
  4  6  1  0
  7  6  1  6
  7  8  1  0
  8  9  1  0
  9 10  1  6
 10 11  1  0
  9 12  1  0
 12 13  1  1
 12 14  1  0
 14  7  1  0
 14 15  1  6
  6 16  1  0
 16 17  2  0
 17  2  1  0
 17 18  1  0
 18 19  1  0
M  END
> <Smiles>
O=c1[nH]c(=O)n([C@@H]2O[C@H](CO)[C@@H](O)[C@@H]2F)cc1OO

> <ID>
CHEMBL3142559

> <standard_value>
54300

> <IC50_uM>
54.3

> <Activity>
No

> <pIC50>
4.26520017

> <BCI>
0

$$$$

  SciTegic03012415362D

 29 33  0  0  0  0            999 V2000
   -3.5894   -8.6441    0.0000 O   0  0
   -3.9462   -7.1872    0.0000 C   0  0
   -5.3864   -6.7681    0.0000 O   0  0
   -2.8628   -6.1485    0.0000 C   0  0
   -1.4233   -6.5700    0.0000 C   0  0
   -0.3384   -5.5341    0.0000 C   0  0
   -0.6928   -4.0817    0.0000 C   0  0
    0.3114   -2.9665    0.0000 C   0  0
    1.8032   -3.1233    0.0000 C   0  0
    2.4133   -1.7530    0.0000 N   0  0
    1.2990   -0.7500    0.0000 C   0  0
    1.2990    0.7500    0.0000 N   0  0
    0.0000    1.5000    0.0000 C   0  0
   -1.2990    0.7500    0.0000 C   0  0
   -2.5987    1.5004    0.0000 C   0  0
   -2.6012    3.0004    0.0000 C   0  0
   -3.9015    3.7484    0.0000 C   0  0
   -5.1993    2.9963    0.0000 C   0  0
   -5.1969    1.4963    0.0000 C   0  0
   -3.8967    0.7484    0.0000 C   0  0
   -1.2990   -0.7500    0.0000 C   0  0
    0.0000   -1.5000    0.0000 C   0  0
   -2.1327   -3.6551    0.0000 C   0  0
   -3.2175   -4.6910    0.0000 C   0  0
   -4.6578   -4.2692    0.0000 C   0  0
   -5.1442   -2.8637    0.0000 C   0  0
   -6.6435   -2.9101    0.0000 C   0  0
   -7.0627   -4.3503    0.0000 C   0  0
   -5.8226   -5.1941    0.0000 C   0  0
  1  2  2  0
  2  3  1  0
  2  4  1  0
  4  5  2  0
  5  6  1  0
  6  7  2  0
  7  8  1  0
  8  9  2  0
  9 10  1  0
 10 11  1  0
 11 12  2  0
 12 13  1  0
 13 14  2  0
 14 15  1  0
 15 16  2  0
 16 17  1  0
 17 18  2  0
 18 19  1  0
 19 20  2  0
 20 15  1  0
 14 21  1  0
 21 22  2  0
 22  8  1  0
 22 11  1  0
  7 23  1  0
 23 24  2  0
 24  4  1  0
 24 25  1  0
 25 26  1  0
 26 27  1  0
 27 28  1  0
 28 29  1  0
 29 25  1  0
M  END
> <Smiles>
O=C(O)c1ccc(-c2c[nH]c3ncc(-c4ccccc4)cc23)cc1C1CCCC1

> <ID>
CHEMBL558642

> <standard_value>
54712.22

> <IC50_uM>
54.71222

> <Activity>
No

> <pIC50>
4.261915663

> <BCI>
0

$$$$

  SciTegic03012415362D

 21 22  0  0  0  0            999 V2000
    5.1873   -7.5109    0.0000 C   0  0
    5.1894   -6.0109    0.0000 C   0  0
    3.8912   -5.2578    0.0000 C   0  0
    3.8933   -3.7570    0.0000 C   0  0
    5.1937   -3.0093    0.0000 O   0  0
    2.5951   -3.0039    0.0000 O   0  0
    2.5973   -1.5031    0.0000 C   0  0
    1.2990   -0.7500    0.0000 N   0  0
    1.2990    0.7500    0.0000 C   0  0
    2.5981    1.5000    0.0000 O   0  0
    0.0000    1.5000    0.0000 C   0  0
    0.0000    3.0000    0.0000 F   0  0
   -1.2990    0.7500    0.0000 C   0  0
   -1.2990   -0.7500    0.0000 N   0  0
   -2.5987   -1.5004    0.0000 C   0  0  3  0  0  0
   -3.9511   -0.8815    0.0000 C   0  0
   -4.9530   -1.9978    0.0000 C   0  0
   -4.2010   -3.2957    0.0000 C   0  0
   -2.7343   -2.9815    0.0000 O   0  0
    0.0000   -1.5000    0.0000 C   0  0
    0.0000   -3.0000    0.0000 O   0  0
  1  2  1  0
  2  3  1  0
  3  4  1  0
  4  5  2  0
  4  6  1  0
  6  7  1  0
  7  8  1  0
  8  9  1  0
  9 10  2  0
  9 11  1  0
 11 12  1  0
 11 13  2  0
 13 14  1  0
 15 14  1  4
 15 16  1  0
 16 17  1  0
 17 18  1  0
 18 19  1  0
 19 15  1  0
 14 20  1  0
 20  8  1  0
 20 21  2  0
M  END
> <Smiles>
CCCC(=O)OCn1c(=O)c(F)cn(C2CCCO2)c1=O

> <ID>
CHEMBL252368

> <standard_value>
55000

> <IC50_uM>
55

> <Activity>
No

> <pIC50>
4.259637311

> <BCI>
0

$$$$

  SciTegic03012415362D

 60 64  0  0  1  0            999 V2000
    6.6239   -9.9537    0.0000 C   0  0
    5.3312   -9.1929    0.0000 O   0  0
    5.3427   -7.6921    0.0000 C   0  0
    6.6490   -6.9548    0.0000 C   0  0
    6.6637   -5.4549    0.0000 C   0  0
    5.3720   -4.6922    0.0000 C   0  0
    5.3836   -3.1914    0.0000 C   0  0
    4.0900   -2.4300    0.0000 C   0  0  1  0  0  0
    2.8000   -3.1700    0.0000 C   0  0
    2.7956   -4.6700    0.0000 O   0  0
    1.5100   -2.4200    0.0000 N   0  0
    0.2100   -3.1600    0.0000 C   0  0  1  0  0  0
    0.2031   -4.6600    0.0000 C   0  0
   -1.0800   -2.4100    0.0000 C   0  0
   -2.3827   -3.1537    0.0000 O   0  0
   -1.0700   -0.9100    0.0000 N   0  0
    0.2348   -0.1701    0.0000 C   0  0
   -2.3600   -0.1500    0.0000 C   0  0  1  0  0  0
   -3.5800   -1.3300    0.0000 C   0  0
   -4.8800   -0.7900    0.0000 C   0  0
   -4.5000    0.6500    0.0000 C   0  0
   -5.5600    1.7200    0.0000 C   0  0
   -7.0000    1.3200    0.0000 C   0  0
   -7.3900   -0.1200    0.0000 C   0  0
   -6.3400   -1.1700    0.0000 C   0  0
   -7.6300    2.5700    0.0000 O   0  0
   -6.5800    3.8900    0.0000 C   0  0
   -5.0900    3.8600    0.0000 C   0  0
   -4.3200    5.1400    0.0000 C   0  0
   -5.0500    6.4600    0.0000 C   0  0
   -6.5400    6.4700    0.0000 C   0  0
   -7.3100    5.1800    0.0000 C   0  0
   -8.8099    5.1974    0.0000 O   0  0
   -2.7000    5.1600    0.0000 C   0  0
   -1.0500    3.5800    0.0000 C   0  0  1  0  0  0
    0.2400    4.3200    0.0000 C   0  0
    0.2444    5.8200    0.0000 O   0  0
    1.5300    3.5700    0.0000 N   0  0
    2.8400    4.3000    0.0000 C   0  0  2  0  0  0
    2.8537    5.7999    0.0000 C   0  0
    4.1300    3.5500    0.0000 C   0  0
    5.4327    4.2937    0.0000 O   0  0
    4.1200    2.0600    0.0000 N   0  0
    5.4200    1.3000    0.0000 C   0  0  1  0  0  0
    6.7249    2.0415    0.0000 C   0  0
    6.7362    3.5423    0.0000 C   0  0
    8.0411    4.2837    0.0000 C   0  0
    8.0525    5.7836    0.0000 O   0  0
    9.3347    3.5243    0.0000 O   0  0
    5.4100   -0.1900    0.0000 C   0  0
    6.7042   -0.9483    0.0000 O   0  0
    4.1100   -0.9300    0.0000 N   0  0
    2.8183   -0.1674    0.0000 C   0  0
   -1.0600    2.0800    0.0000 N   0  0
    0.2342    1.3217    0.0000 C   0  0
   -2.3600    1.3400    0.0000 C   0  0
   -3.6567    2.0940    0.0000 O   0  0
    4.0657   -5.4295    0.0000 C   0  0
    4.0511   -6.9295    0.0000 C   0  0
    2.7448   -7.6667    0.0000 O   0  0
  1  2  1  0
  2  3  1  0
  3  4  2  0
  4  5  1  0
  5  6  2  0
  6  7  1  0
  8  7  1  1
  8  9  1  0
  9 10  2  0
  9 11  1  0
 11 12  1  0
 12 13  1  1
 12 14  1  0
 14 15  2  0
 14 16  1  0
 16 17  1  0
 16 18  1  0
 18 19  1  1
 19 20  1  0
 20 21  2  0
 21 22  1  0
 22 23  2  0
 23 24  1  0
 24 25  2  0
 25 20  1  0
 23 26  1  0
 26 27  1  0
 27 28  2  0
 28 29  1  0
 29 30  2  0
 30 31  1  0
 31 32  2  0
 32 27  1  0
 32 33  1  0
 29 34  1  0
 35 34  1  1
 35 36  1  0
 36 37  2  0
 36 38  1  0
 38 39  1  0
 39 40  1  6
 39 41  1  0
 41 42  2  0
 41 43  1  0
 43 44  1  0
 44 45  1  1
 45 46  1  0
 46 47  1  0
 47 48  2  0
 47 49  1  0
 44 50  1  0
 50 51  2  0
 50 52  1  0
 52  8  1  0
 52 53  1  0
 35 54  1  0
 54 55  1  0
 54 56  1  0
 56 18  1  0
 56 57  2  0
  6 58  1  0
 58 59  2  0
 59  3  1  0
 59 60  1  0
M  END
> <Smiles>
COc1ccc(C[C@H]2C(=O)N[C@@H](C)C(=O)N(C)[C@H]3Cc4ccc(cc4)Oc4cc(ccc4O)C[C@@H](C(=O)N[C@H](C)C(=O)N[C@@H](CCC(=O)O)C(=O)N2C)N(C)C3=O)cc1O

> <ID>
CHEMBL1288984

> <standard_value>
56240

> <IC50_uM>
56.24

> <Activity>
No

> <pIC50>
4.249954688

> <BCI>
0

$$$$

  SciTegic03012415362D

 29 30  0  0  0  0            999 V2000
    5.1983   -3.0012    0.0000 C   0  0
    5.1988   -1.5012    0.0000 C   0  0  3  0  0  0
    4.3327   -2.0011    0.0000 O   0  0
    3.8990   -0.7508    0.0000 C   0  0
    2.5988   -1.5004    0.0000 S   0  0
    2.5983   -3.0004    0.0000 O   0  0
    3.4646   -2.0008    0.0000 O   0  0
    1.2990   -0.7500    0.0000 C   0  0
    1.2990    0.7500    0.0000 C   0  0
    0.0000    1.5000    0.0000 C   0  0
   -1.2990    0.7500    0.0000 C   0  0
   -2.5981    1.5000    0.0000 F   0  0
   -1.2990   -0.7500    0.0000 C   0  0
    0.0000   -1.5000    0.0000 C   0  0
    6.4990   -0.7516    0.0000 C   0  0
    6.4995    0.7484    0.0000 O   0  0
    7.7988   -1.5020    0.0000 N   0  0
    9.0990   -0.7525    0.0000 C   0  0
   10.3991   -1.5006    0.0000 C   0  0
   11.6971   -0.7487    0.0000 C   0  0
   11.6950    0.7512    0.0000 C   0  0
   12.9937    1.5035    0.0000 C   0  0
   14.2917    2.2553    0.0000 N   0  0
   10.3949    1.4994    0.0000 C   0  0
   10.3928    3.0003    0.0000 C   0  0
   11.6903    3.7529    0.0000 F   0  0
    9.0925    3.7480    0.0000 F   0  0
   10.3900    4.5002    0.0000 F   0  0
    9.0969    0.7476    0.0000 C   0  0
  2  1  1  4
  2  3  1  0
  2  4  1  0
  4  5  1  0
  5  6  2  0
  5  7  2  0
  5  8  1  0
  8  9  2  0
  9 10  1  0
 10 11  2  0
 11 12  1  0
 11 13  1  0
 13 14  2  0
 14  8  1  0
  2 15  1  0
 15 16  2  0
 15 17  1  0
 17 18  1  0
 18 19  2  0
 19 20  1  0
 20 21  2  0
 21 22  1  0
 22 23  3  0
 21 24  1  0
 24 25  1  0
 25 26  1  0
 25 27  1  0
 25 28  1  0
 24 29  2  0
 29 18  1  0
M  END
> <Smiles>
CC(O)(CS(=O)(=O)c1ccc(F)cc1)C(=O)Nc1ccc(C#N)c(C(F)(F)F)c1

> <ID>
CHEMBL409

> <standard_value>
57657.71

> <IC50_uM>
57.65771

> <Activity>
No

> <pIC50>
4.239142611

> <BCI>
0

$$$$

  SciTegic03012415362D

 40 45  0  0  1  0            999 V2000
    4.8147   -2.4028    0.0000 C   0  0
    5.4039   -1.0234    0.0000 C   0  0
    6.8932   -0.8444    0.0000 O   0  0
    4.5030    0.1770    0.0000 O   0  0
    3.0157    0.0000    0.0000 C   0  0  3  0  0  0
    2.1287   -1.3994    0.0000 C   0  0
    0.7096   -0.9264    0.0000 C   0  0  1  0  0  0
    0.8750   -2.4172    0.0000 C   0  0
   -0.5322   -1.6754    0.0000 C   0  0  3  0  0  0
   -0.5322   -3.1734    0.0000 C   0  0
   -1.8331   -3.9027    0.0000 C   0  0
   -3.1340   -3.1734    0.0000 C   0  0  3  0  0  0
   -4.4151   -3.9027    0.0000 C   0  0
   -3.0984   -4.6211    0.0000 C   0  0
   -5.7318   -4.6213    0.0000 C   0  0
   -5.6963   -3.1734    0.0000 C   0  0
   -6.9931   -3.9273    0.0000 O   0  0
   -5.6963   -1.6754    0.0000 C   0  0
   -4.4151   -0.9264    0.0000 C   0  0
   -3.1340   -1.6754    0.0000 C   0  0  1  0  0  0
   -3.1340    0.0394    0.0000 C   0  0
   -1.8528   -0.8870    0.0000 C   0  0  1  0  0  0
   -1.8331    0.5322    0.0000 C   0  0
   -0.5322    1.2812    0.0000 C   0  0
    0.7096    0.5322    0.0000 C   0  0  1  0  0  0
    0.8199    1.5261    0.0000 C   0  0
    2.1287    1.0052    0.0000 C   0  0  3  0  0  0
    2.5556    2.4434    0.0000 C   0  0  2  0  0  0
    4.0153    2.7890    0.0000 C   0  0
    1.1117    2.2043    0.0000 C   0  0
    0.4684    3.5593    0.0000 C   0  0
    1.5584    4.5898    0.0000 C   0  0  2  0  0  0
    1.3656    6.0756    0.0000 C   0  0
    2.5576    6.9862    0.0000 C   0  0
    1.1733    7.5633    0.0000 C   0  0
   -0.0196    6.6534    0.0000 O   0  0
   -0.2127    8.1418    0.0000 C   0  0
    0.9793    9.0523    0.0000 C   0  0
   -1.5971    8.7192    0.0000 O   0  0
    2.8753    3.8717    0.0000 O   0  0
  1  2  1  0
  2  3  2  0
  2  4  1  0
  5  4  1  4
  5  6  1  0
  6  7  1  0
  7  8  1  6
  7  9  1  0
  9 10  1  4
 10 11  1  0
 12 11  1  4
 12 13  1  0
 13 14  1  0
 13 15  1  0
 13 16  1  0
 16 17  2  0
 16 18  1  0
 18 19  2  0
 20 19  1  6
 20 12  1  0
 20 21  1  0
 22 21  1  1
 22  9  1  0
 22 20  1  0
 22 23  1  0
 23 24  1  0
 24 25  1  0
 25  7  1  0
 25 26  1  1
 27 25  1  4
 27  5  1  0
 27 28  1  0
 28 29  1  1
 28 30  1  0
 30 31  1  0
 31 32  1  0
 32 33  1  6
 33 34  1  0
 33 35  1  0
 33 36  1  0
 36 37  1  0
 37 38  1  0
 37 39  2  0
 32 40  1  0
 40 28  1  0
M  END
> <Smiles>
CC(=O)OC1C[C@@]2(C)C3CCC4C(C)(C)C(=O)C=C[C@@]45C[C@@]35CC[C@]2(C)C1[C@]1(C)CC[C@H](C(C)(C)OC(C)=O)O1

> <ID>
CHEMBL180828

> <standard_value>
58440

> <IC50_uM>
58.44

> <Activity>
No

> <pIC50>
4.233289793

> <BCI>
0

$$$$

  SciTegic03012415362D

 16 15  0  0  0  0            999 V2000
    0.0007    0.0004    0.0000 C   0  0
    1.3000    0.7500    0.0000 C   0  0
    2.6000    0.0000    0.0000 C   0  0
    3.9000    0.7500    0.0000 C   0  0
    3.9000    2.2500    0.0000 O   0  0
    5.2000    0.0000    0.0000 O   0  0
    6.5000    0.7500    0.0000 C   0  0
    7.7999    0.0000    0.0000 O   0  0
    9.0999    0.7500    0.0000 C   0  0
    9.0999    2.2500    0.0000 O   0  0
   10.3999    0.0000    0.0000 C   0  0
   11.6999    0.7500    0.0000 C   0  0
   12.9999    0.0000    0.0000 C   0  0
   12.9999   -1.5000    0.0000 O   0  0
   14.2999    0.7500    0.0000 C   0  0
   15.5992    0.0004    0.0000 N   0  0
  1  2  1  0
  2  3  1  0
  3  4  1  0
  4  5  2  0
  4  6  1  0
  6  7  1  0
  7  8  1  0
  8  9  1  0
  9 10  2  0
  9 11  1  0
 11 12  1  0
 12 13  1  0
 13 14  2  0
 13 15  1  0
 15 16  1  0
M  END
> <Smiles>
CCCC(=O)OCOC(=O)CCC(=O)CN.Cl

> <ID>
CHEMBL452926

> <standard_value>
59000

> <IC50_uM>
59

> <Activity>
No

> <pIC50>
4.229147988

> <BCI>
0

> <RemovedSalts>
HCl

$$$$

  SciTegic03012415362D

 39 45  0  0  1  0            999 V2000
   10.2664    0.6812    0.0000 C   0  0
    9.3466   -0.5037    0.0000 C   0  0
    9.9133   -1.8926    0.0000 C   0  0
    7.8596   -0.3004    0.0000 C   0  0
    6.9393   -1.4860    0.0000 C   0  0
    5.5000   -1.2900    0.0000 C   0  0  3  0  0  0
    5.0300    0.0000    0.0000 O   0  0
    3.8300    0.7200    0.0000 C   0  0
    2.4500    0.5000    0.0000 C   0  0  2  0  0  0
    3.3200   -0.7100    0.0000 C   0  0  1  0  0  0
    4.4894    0.2361    0.0000 C   0  0
    4.2484    1.7174    0.0000 N   0  0
    5.4119    2.6646    0.0000 C   0  0
    5.1735    4.1456    0.0000 C   0  0
    3.7718    4.6796    0.0000 C   0  0
    2.6084    3.7327    0.0000 C   0  0
    2.8468    2.2518    0.0000 C   0  0
    3.8000   -3.2800    0.0000 C   0  0  1  0  0  0
    2.4200   -3.0200    0.0000 C   0  0
    1.5700   -1.9700    0.0000 C   0  0
    0.3100   -2.6400    0.0000 C   0  0
    0.2805   -4.1397    0.0000 O   0  0
   -0.8900   -1.9400    0.0000 C   0  0
   -0.8900   -0.5300    0.0000 C   0  0
   -2.1100    0.1600    0.0000 C   0  0
   -3.3300   -0.5300    0.0000 C   0  0
   -3.3300   -1.9400    0.0000 C   0  0
   -2.1100   -2.6400    0.0000 C   0  0
   -2.1100   -4.1400    0.0000 O   0  0
   -4.5500   -2.6400    0.0000 C   0  0
   -5.7600   -1.9400    0.0000 C   0  0
   -5.7600   -0.5300    0.0000 C   0  0
   -5.7209    0.9695    0.0000 C   0  0
   -7.0433   -1.3066    0.0000 C   0  0
   -4.5500    0.1600    0.0000 O   0  0
    0.3100    0.1600    0.0000 O   0  0
    1.5500   -0.5300    0.0000 C   0  0  2  0  0  0
    5.0100   -2.5900    0.0000 C   0  0
    6.1510   -3.5638    0.0000 O   0  0
  1  2  1  0
  2  3  1  0
  2  4  2  0
  4  5  1  0
  6  5  1  4
  6  7  1  0
  7  8  1  0
  9  8  1  6
  9 10  1  0
 10 11  1  1
 11 12  1  0
 12 13  1  0
 13 14  1  0
 14 15  1  0
 15 16  1  0
 16 17  1  0
 17 12  1  0
 10 18  1  0
 18 19  1  6
 19 20  2  0
 20 21  1  0
 21 22  2  0
 21 23  1  0
 23 24  2  0
 24 25  1  0
 25 26  2  0
 26 27  1  0
 27 28  2  0
 28 23  1  0
 28 29  1  0
 27 30  1  0
 30 31  2  0
 31 32  1  0
 32 33  1  0
 32 34  1  0
 32 35  1  0
 35 26  1  0
 24 36  1  0
 37 36  1  6
 37 20  1  0
 37  9  1  0
 37  6  1  0
 18 38  1  0
 38  6  1  0
 38 39  2  0
M  END
> <Smiles>
CC(C)=CCC12OC[C@@H]3[C@@H](CN4CCCCC4)[C@@H](C=C4C(=O)c5c(cc6c(c5O)C=CC(C)(C)O6)O[C@]431)C2=O

> <ID>
CHEMBL2336605

> <standard_value>
59100

> <IC50_uM>
59.1

> <Activity>
No

> <pIC50>
4.228412519

> <BCI>
0

$$$$

  SciTegic03012415362D

 24 23  0  0  0  0            999 V2000
    0.0007    0.0004    0.0000 C   0  0
    1.3000    0.7500    0.0000 C   0  0
    1.3000    2.2500    0.0000 C   0  0
    0.0011    1.5002    0.0000 C   0  0
    2.6000    0.0000    0.0000 C   0  0
    2.6000   -1.5000    0.0000 O   0  0
    3.9000    0.7500    0.0000 O   0  0
    5.2000    0.0000    0.0000 C   0  0
    6.5000    0.7500    0.0000 O   0  0
    7.7999    0.0000    0.0000 C   0  0
    7.7999   -1.5000    0.0000 O   0  0
    9.0999    0.7500    0.0000 C   0  0
   10.3999    0.0000    0.0000 C   0  0
   11.6999    0.7500    0.0000 C   0  0
   11.6999    2.2500    0.0000 O   0  0
   12.9999    0.0000    0.0000 O   0  0
   14.2999    0.7500    0.0000 C   0  0
   15.5999    0.0000    0.0000 O   0  0
   16.8999    0.7500    0.0000 C   0  0
   16.8999    2.2500    0.0000 O   0  0
   18.1999    0.0000    0.0000 C   0  0
   19.4991    0.7496    0.0000 C   0  0
   18.1999   -1.5000    0.0000 C   0  0
   19.4988   -0.7502    0.0000 C   0  0
  1  2  1  0
  2  3  1  0
  2  4  1  0
  2  5  1  0
  5  6  2  0
  5  7  1  0
  7  8  1  0
  8  9  1  0
  9 10  1  0
 10 11  2  0
 10 12  1  0
 12 13  1  0
 13 14  1  0
 14 15  2  0
 14 16  1  0
 16 17  1  0
 17 18  1  0
 18 19  1  0
 19 20  2  0
 19 21  1  0
 21 22  1  0
 21 23  1  0
 21 24  1  0
M  END
> <Smiles>
CC(C)(C)C(=O)OCOC(=O)CCC(=O)OCOC(=O)C(C)(C)C

> <ID>
CHEMBL179533

> <standard_value>
61000

> <IC50_uM>
61

> <Activity>
No

> <pIC50>
4.214670165

> <BCI>
0

$$$$

  SciTegic03012415362D

 18 19  0  0  0  0            999 V2000
    4.0524   -4.4217    0.0000 C   0  0
    2.5524   -4.4208    0.0000 C   0  0
    1.8019   -5.7196    0.0000 C   0  0
    3.3017   -5.7202    0.0000 C   0  0
    1.8032   -3.1233    0.0000 C   0  0
    2.4133   -1.7530    0.0000 C   0  0
    1.2990   -0.7500    0.0000 C   0  0
    1.2990    0.7500    0.0000 N   0  0
    0.0000    1.5000    0.0000 C   0  0
    0.0000    3.0008    0.0000 C   0  0
    1.2985    3.7517    0.0000 C   0  0
   -1.2993    3.7504    0.0000 C   0  0
   -0.0007    4.5008    0.0000 C   0  0
   -1.2990    0.7500    0.0000 C   0  0
   -1.2990   -0.7500    0.0000 C   0  0
   -2.5981   -1.5000    0.0000 O   0  0
    0.0000   -1.5000    0.0000 N   0  0
    0.3114   -2.9665    0.0000 N   0  0
  1  2  1  0
  2  3  1  0
  2  4  1  0
  2  5  1  0
  5  6  1  0
  6  7  2  0
  7  8  1  0
  8  9  1  0
  9 10  1  0
 10 11  1  0
 10 12  1  0
 10 13  1  0
  9 14  2  0
 14 15  1  0
 15 16  2  0
 15 17  1  0
 17  7  1  0
 17 18  1  0
 18  5  2  0
M  END
> <Smiles>
CC(C)(C)c1cc2[nH]c(C(C)(C)C)cc(=O)n2n1

> <ID>
CHEMBL4849990

> <standard_value>
62410

> <IC50_uM>
62.41

> <Activity>
No

> <pIC50>
4.204745817

> <BCI>
0

$$$$

  SciTegic03012415362D

 45 51  0  0  1  0            999 V2000
    2.1934   -5.8718    0.0000 C   0  0
    2.7084   -4.4629    0.0000 C   0  0
    4.1861   -4.2050    0.0000 C   0  0
    1.7461   -3.3113    0.0000 C   0  0
    2.2614   -1.9017    0.0000 C   0  0
    1.2990   -0.7500    0.0000 C   0  0
    1.2990    0.7500    0.0000 C   0  0
    2.5981    1.5000    0.0000 O   0  0
    0.0000    1.5000    0.0000 C   0  0
   -1.2990    0.7500    0.0000 C   0  0
   -1.2990   -0.7500    0.0000 C   0  0
    0.0000   -1.5000    0.0000 C   0  0
    0.0000   -3.0000    0.0000 O   0  0
   -2.5981   -1.5000    0.0000 C   0  0
   -2.5981   -3.0000    0.0000 O   0  0
   -3.8971   -0.7500    0.0000 C   0  0
   -5.1962   -1.5000    0.0000 C   0  0
   -6.4952   -0.7500    0.0000 C   0  0  3  0  0  0
   -6.4952    0.7500    0.0000 C   0  0
   -7.7942    1.5000    0.0000 O   0  0
   -5.1962    1.5000    0.0000 C   0  0  3  0  0  0
   -6.7069    1.5943    0.0000 C   0  0
   -7.3898    2.9308    0.0000 C   0  0
   -8.8886    3.0086    0.0000 C   0  0
   -9.5711    4.3443    0.0000 C   0  0
   -9.7045    1.7499    0.0000 C   0  0
   -6.6281    1.4607    0.0000 O   0  0
   -5.8781    2.7597    0.0000 C   0  0
   -5.1962    1.5000    0.0000 C   0  0  2  0  0  0
   -6.4952    0.7500    0.0000 C   0  0  1  0  0  0
   -7.9738    0.4924    0.0000 C   0  0
   -8.4909   -0.9165    0.0000 N   0  0
   -9.9683   -1.1761    0.0000 C   0  0
  -10.4822   -2.5853    0.0000 C   0  0
   -9.5188   -3.7350    0.0000 N   0  0
  -10.0330   -5.1449    0.0000 C   0  0
  -11.5100   -5.4069    0.0000 C   0  0
  -12.0217   -6.8169    0.0000 C   0  0
  -11.0565   -7.9651    0.0000 C   0  0
   -9.5795   -7.7032    0.0000 C   0  0
   -9.0678   -6.2932    0.0000 C   0  0
   -8.0414   -3.4755    0.0000 C   0  0
   -7.5274   -2.0663    0.0000 C   0  0
   -3.8971    0.7500    0.0000 C   0  0  3  0  0  0
   -2.5981    1.5000    0.0000 O   0  0
  1  2  1  0
  2  3  1  0
  2  4  2  0
  4  5  1  0
  5  6  1  0
  6  7  2  0
  7  8  1  0
  7  9  1  0
  9 10  2  0
 10 11  1  0
 11 12  2  0
 12  6  1  0
 12 13  1  0
 11 14  1  0
 14 15  2  0
 14 16  1  0
 16 17  2  0
 18 17  1  1
 18 19  1  0
 19 20  2  0
 19 21  1  0
 21 22  1  4
 22 23  1  0
 23 24  2  0
 24 25  1  0
 24 26  1  0
 21 27  1  0
 27 28  1  0
 29 28  1  1
 29 30  1  0
 30 18  1  0
 30 31  1  6
 31 32  1  0
 32 33  1  0
 33 34  1  0
 34 35  1  0
 35 36  1  0
 36 37  2  0
 37 38  1  0
 38 39  2  0
 39 40  1  0
 40 41  2  0
 41 36  1  0
 35 42  1  0
 42 43  1  0
 43 32  1  0
 29 44  1  0
 44 16  1  0
 44 21  1  0
 44 45  1  1
 45 10  1  0
M  END
> <Smiles>
CC(C)=CCc1c(O)cc2c(c1O)C(=O)C1=C[C@H]3C(=O)C4(CC=C(C)C)OC[C@H]([C@H]3CN3CCN(c5ccccc5)CC3)[C@]14O2

> <ID>
CHEMBL2335668

> <standard_value>
63400

> <IC50_uM>
63.4

> <Activity>
No

> <pIC50>
4.197910742

> <BCI>
0

$$$$

  SciTegic03012415362D

 20 19  0  0  0  0            999 V2000
    0.0007    0.0004    0.0000 C   0  0
    1.3000    0.7500    0.0000 C   0  0
    2.6000    0.0000    0.0000 C   0  0
    3.9000    0.7500    0.0000 C   0  0
    3.8969    2.2508    0.0000 C   0  0
    2.5961    2.9994    0.0000 C   0  0
    2.5930    4.4994    0.0000 C   0  0
    5.2000    0.0000    0.0000 C   0  0
    5.2000   -1.5000    0.0000 O   0  0
    6.5000    0.7500    0.0000 O   0  0
    7.7999    0.0000    0.0000 C   0  0
    9.0999    0.7500    0.0000 O   0  0
   10.3999    0.0000    0.0000 C   0  0
   10.3999   -1.5000    0.0000 O   0  0
   11.6999    0.7500    0.0000 C   0  0
   12.9999    0.0000    0.0000 C   0  0
   14.2999    0.7500    0.0000 C   0  0
   14.2999    2.2500    0.0000 O   0  0
   15.5999    0.0000    0.0000 C   0  0
   16.8992    0.7496    0.0000 N   0  0
  1  2  1  0
  2  3  1  0
  3  4  1  0
  4  5  1  0
  5  6  1  0
  6  7  1  0
  4  8  1  0
  8  9  2  0
  8 10  1  0
 10 11  1  0
 11 12  1  0
 12 13  1  0
 13 14  2  0
 13 15  1  0
 15 16  1  0
 16 17  1  0
 17 18  2  0
 17 19  1  0
 19 20  1  0
M  END
> <Smiles>
CCCC(CCC)C(=O)OCOC(=O)CCC(=O)CN.Cl

> <ID>
CHEMBL486778

> <standard_value>
64000

> <IC50_uM>
64

> <Activity>
No

> <pIC50>
4.193820026

> <BCI>
0

> <RemovedSalts>
HCl

$$$$

  SciTegic03012415362D

 29 31  0  0  0  0            999 V2000
    2.6030   -2.9977    0.0000 N   0  0
    2.6003   -1.4977    0.0000 C   0  0
    3.8983   -0.7459    0.0000 O   0  0
    1.2990   -0.7500    0.0000 C   0  0
    1.2990    0.7500    0.0000 C   0  0
    0.0000    1.5000    0.0000 C   0  0
   -1.2990    0.7500    0.0000 C   0  0
   -2.6003    1.4977    0.0000 N   0  0
   -2.6061    2.9986    0.0000 C   0  0
   -1.3096    3.7531    0.0000 N   0  0
   -3.9075    3.7444    0.0000 O   0  0
   -3.8990    0.7455    0.0000 C   0  0
   -5.2007    1.4909    0.0000 C   0  0
   -5.2060    2.9909    0.0000 F   0  0
   -6.4972    0.7364    0.0000 C   0  0
   -6.4920   -0.7636    0.0000 C   0  0
   -5.1903   -1.5091    0.0000 C   0  0
   -3.8939   -0.7546    0.0000 C   0  0
   -2.5923   -1.5001    0.0000 F   0  0
   -1.2990   -0.7500    0.0000 N   0  0
    0.0000   -1.5000    0.0000 C   0  0
    0.0000   -3.0008    0.0000 C   0  0
    1.3002   -3.7488    0.0000 C   0  0
    1.3026   -5.2488    0.0000 C   0  0
    0.0048   -6.0009    0.0000 C   0  0
    0.0071   -7.5009    0.0000 F   0  0
   -1.2955   -5.2529    0.0000 C   0  0
   -1.2978   -3.7529    0.0000 C   0  0
   -2.5981   -3.0050    0.0000 F   0  0
  1  2  1  0
  2  3  2  0
  2  4  1  0
  4  5  2  0
  5  6  1  0
  6  7  2  0
  7  8  1  0
  8  9  1  0
  9 10  1  0
  9 11  2  0
  8 12  1  0
 12 13  2  0
 13 14  1  0
 13 15  1  0
 15 16  2  0
 16 17  1  0
 17 18  2  0
 18 12  1  0
 18 19  1  0
  7 20  1  0
 20 21  2  0
 21  4  1  0
 21 22  1  0
 22 23  2  0
 23 24  1  0
 24 25  2  0
 25 26  1  0
 25 27  1  0
 27 28  2  0
 28 22  1  0
 28 29  1  0
M  END
> <Smiles>
NC(=O)c1ccc(N(C(N)=O)c2c(F)cccc2F)nc1-c1ccc(F)cc1F

> <ID>
CHEMBL1090090

> <standard_value>
64464.52

> <IC50_uM>
64.46452

> <Activity>
No

> <pIC50>
4.190679247

> <BCI>
0

$$$$

  SciTegic03012415362D

 40 45  0  0  1  0            999 V2000
    2.1934   -5.8718    0.0000 C   0  0
    2.7084   -4.4629    0.0000 C   0  0
    4.1861   -4.2050    0.0000 C   0  0
    1.7461   -3.3113    0.0000 C   0  0
    2.2614   -1.9017    0.0000 C   0  0
    1.2990   -0.7500    0.0000 C   0  0
    1.2990    0.7500    0.0000 C   0  0
    2.5981    1.5000    0.0000 O   0  0
    0.0000    1.5000    0.0000 C   0  0
   -1.2990    0.7500    0.0000 C   0  0
   -1.2990   -0.7500    0.0000 C   0  0
    0.0000   -1.5000    0.0000 C   0  0
    0.0000   -3.0000    0.0000 O   0  0
   -2.5981   -1.5000    0.0000 C   0  0
   -2.5981   -3.0000    0.0000 O   0  0
   -3.8971   -0.7500    0.0000 C   0  0
   -5.1962   -1.5000    0.0000 C   0  0
   -6.4952   -0.7500    0.0000 C   0  0  3  0  0  0
   -6.4952    0.7500    0.0000 C   0  0
   -7.7942    1.5000    0.0000 O   0  0
   -5.1962    1.5000    0.0000 C   0  0  3  0  0  0
   -6.7069    1.5943    0.0000 C   0  0
   -7.3898    2.9308    0.0000 C   0  0
   -8.8886    3.0086    0.0000 C   0  0
   -9.5711    4.3443    0.0000 C   0  0
   -9.7045    1.7499    0.0000 C   0  0
   -6.6281    1.4607    0.0000 O   0  0
   -5.8781    2.7597    0.0000 C   0  0
   -5.1962    1.5000    0.0000 C   0  0  2  0  0  0
   -6.4952    0.7500    0.0000 C   0  0  1  0  0  0
   -7.9738    0.4924    0.0000 C   0  0
   -8.4909   -0.9165    0.0000 N   0  0
   -9.9683   -1.1761    0.0000 C   0  0
  -10.4822   -2.5853    0.0000 C   0  0
   -9.5188   -3.7350    0.0000 N   0  0
  -10.0327   -5.1442    0.0000 C   0  0
   -8.0414   -3.4755    0.0000 C   0  0
   -7.5274   -2.0663    0.0000 C   0  0
   -3.8971    0.7500    0.0000 C   0  0  3  0  0  0
   -2.5981    1.5000    0.0000 O   0  0
  1  2  1  0
  2  3  1  0
  2  4  2  0
  4  5  1  0
  5  6  1  0
  6  7  2  0
  7  8  1  0
  7  9  1  0
  9 10  2  0
 10 11  1  0
 11 12  2  0
 12  6  1  0
 12 13  1  0
 11 14  1  0
 14 15  2  0
 14 16  1  0
 16 17  2  0
 18 17  1  1
 18 19  1  0
 19 20  2  0
 19 21  1  0
 21 22  1  4
 22 23  1  0
 23 24  2  0
 24 25  1  0
 24 26  1  0
 21 27  1  0
 27 28  1  0
 29 28  1  1
 29 30  1  0
 30 18  1  0
 30 31  1  6
 31 32  1  0
 32 33  1  0
 33 34  1  0
 34 35  1  0
 35 36  1  0
 35 37  1  0
 37 38  1  0
 38 32  1  0
 29 39  1  0
 39 16  1  0
 39 21  1  0
 39 40  1  1
 40 10  1  0
M  END
> <Smiles>
CC(C)=CCc1c(O)cc2c(c1O)C(=O)C1=C[C@H]3C(=O)C4(CC=C(C)C)OC[C@H]([C@H]3CN3CCN(C)CC3)[C@]14O2

> <ID>
CHEMBL2336120

> <standard_value>
64600

> <IC50_uM>
64.6

> <Activity>
No

> <pIC50>
4.189767482

> <BCI>
0

$$$$

  SciTegic03012415362D

 25 28  0  0  0  0            999 V2000
   -0.6923   -4.0811    0.0000 C   0  0
    0.3114   -2.9665    0.0000 N   0  0
    1.8032   -3.1233    0.0000 C   0  0
    2.9160   -4.1261    0.0000 C   0  0
    4.2151   -3.3761    0.0000 C   0  0
    5.5851   -3.9826    0.0000 S   0  0  3  0  0  0
    5.7445   -5.4741    0.0000 C   0  0
    6.7973   -3.0992    0.0000 O   0  0
    3.9032   -1.9089    0.0000 S   0  0
    2.4133   -1.7530    0.0000 C   0  0
    1.2990   -0.7500    0.0000 C   0  0
    1.2990    0.7500    0.0000 C   0  0
    0.0000    1.5000    0.0000 N   0  0
   -1.2990    0.7500    0.0000 N   0  0
   -2.5973    1.5031    0.0000 C   0  0
   -2.5951    3.0039    0.0000 C   0  0
   -3.8916    3.7585    0.0000 C   0  0
   -3.8864    5.2585    0.0000 C   0  0
   -2.5847    6.0040    0.0000 C   0  0
   -1.2883    5.2495    0.0000 C   0  0
    0.0133    5.9950    0.0000 N   0  0
   -1.2935    3.7495    0.0000 C   0  0
   -1.2990   -0.7500    0.0000 C   0  0
   -2.5981   -1.5000    0.0000 O   0  0
    0.0000   -1.5000    0.0000 C   0  0
  1  2  1  0
  2  3  1  0
  3  4  1  0
  4  5  2  0
  5  6  1  0
  6  7  1  4
  6  8  2  0
  5  9  1  0
  9 10  1  0
 10  3  2  0
 10 11  1  0
 11 12  1  0
 12 13  2  0
 13 14  1  0
 14 15  1  0
 15 16  1  0
 16 17  2  0
 17 18  1  0
 18 19  2  0
 19 20  1  0
 20 21  1  0
 20 22  2  0
 22 16  1  0
 14 23  1  0
 23 24  2  0
 23 25  1  0
 25 11  2  0
 25  2  1  0
M  END
> <Smiles>
Cn1c2cc([S+](C)[O-])sc2c2cnn(Cc3cccc(N)c3)c(=O)c21

> <ID>
CHEMBL1085588

> <standard_value>
65430

> <IC50_uM>
65.43

> <Activity>
No

> <pIC50>
4.18422308

> <BCI>
0

$$$$

  SciTegic03012415362D

 79 86  0  0  1  0            999 V2000
    0.0025   -1.4944    0.0000 C   0  0
    1.3019   -0.7451    0.0000 C   0  0
    2.6018   -1.4953    0.0000 C   0  0
    3.9004   -0.7446    0.0000 C   0  0
    2.6030   -2.9961    0.0000 C   0  0
    1.3043   -3.7467    0.0000 O   0  0
    3.9028   -3.7463    0.0000 O   0  0
    3.9040   -5.2471    0.0000 C   0  0  1  0  0  0
    5.2052   -5.9934    0.0000 C   0  0  2  0  0  0
    6.0698   -5.4910    0.0000 O   0  0
    5.2095   -7.4934    0.0000 C   0  0  2  0  0  0
    6.5071   -6.7393    0.0000 C   0  0
    6.5038   -5.2385    0.0000 O   0  0
    7.8014   -4.4844    0.0000 C   0  0
    9.1023   -5.2311    0.0000 C   0  0
    7.7980   -2.9844    0.0000 O   0  0
    6.5106   -8.2397    0.0000 C   0  0  2  0  0  0
    7.8075   -7.4860    0.0000 O   0  0
    6.5149   -9.7397    0.0000 C   0  0
    5.2180  -10.4934    0.0000 C   0  0  2  0  0  0
    6.0854  -10.9909    0.0000 C   0  0
    3.9168   -9.7471    0.0000 C   0  0
    2.6199  -10.5008    0.0000 C   0  0
    2.6242  -12.0008    0.0000 C   0  0
    3.9254  -12.7471    0.0000 C   0  0  2  0  0  0
    3.9296  -14.2471    0.0000 C   0  0  1  0  0  0
    2.6285  -13.5008    0.0000 C   0  0
    2.6327  -15.0008    0.0000 C   0  0
    2.6370  -16.5008    0.0000 C   0  0
    3.9382  -17.2471    0.0000 C   0  0  2  0  0  0
    3.9394  -18.7479    0.0000 O   0  0
    2.6407  -19.5002    0.0000 C   0  0  2  0  0  0
    1.3420  -18.7494    0.0000 O   0  0
    0.0425  -19.4986    0.0000 C   0  0  2  0  0  0
   -0.9191  -18.3464    0.0000 C   0  0
   -0.4032  -16.9379    0.0000 O   0  0
   -1.9043  -18.5177    0.0000 O   0  0
    0.0416  -20.9986    0.0000 C   0  0  1  0  0  0
   -1.2601  -21.7456    0.0000 O   0  0
   -2.5584  -20.9926    0.0000 C   0  0  2  0  0  0
   -2.5523  -19.4925    0.0000 O   0  0
   -3.8483  -18.7372    0.0000 C   0  0  2  0  0  0
   -3.8392  -17.2364    0.0000 C   0  0
   -2.5360  -16.4936    0.0000 O   0  0
   -5.1504  -19.4820    0.0000 C   0  0  1  0  0  0
   -6.4464  -18.7267    0.0000 O   0  0
   -5.1565  -20.9819    0.0000 C   0  0  2  0  0  0
   -6.4586  -21.7267    0.0000 O   0  0
   -3.8605  -21.7372    0.0000 C   0  0  1  0  0  0
   -3.8666  -23.2372    0.0000 O   0  0
    1.3402  -21.7494    0.0000 C   0  0  2  0  0  0
    1.3393  -23.2494    0.0000 O   0  0
    2.6397  -21.0002    0.0000 C   0  0  1  0  0  0
    3.9374  -21.7541    0.0000 O   0  0
    3.9343  -23.2550    0.0000 C   0  0  2  0  0  0
    2.6322  -23.9997    0.0000 O   0  0
    2.6261  -25.4997    0.0000 C   0  0  2  0  0  0
    1.3217  -26.2421    0.0000 C   0  0
    0.0268  -25.4850    0.0000 O   0  0
    3.9220  -26.2550    0.0000 C   0  0  1  0  0  0
    3.9159  -27.7550    0.0000 O   0  0
    5.2241  -25.5104    0.0000 C   0  0  2  0  0  0
    6.5201  -26.2657    0.0000 O   0  0
    5.2303  -24.0104    0.0000 C   0  0  1  0  0  0
    6.5324  -23.2657    0.0000 O   0  0
    5.2351  -16.4934    0.0000 C   0  0  2  0  0  0
    6.5131  -15.7081    0.0000 C   0  0
    5.2028  -17.9735    0.0000 C   0  0
    6.0445  -18.5135    0.0000 O   0  0
    5.2308  -14.9934    0.0000 C   0  0  2  0  0  0
    6.5277  -14.2397    0.0000 C   0  0
    6.5234  -12.7397    0.0000 C   0  0
    5.2223  -11.9934    0.0000 C   0  0  1  0  0  0
    6.0869  -11.4909    0.0000 C   0  0
    3.9126   -8.2471    0.0000 C   0  0  2  0  0  0
    2.6114   -7.5008    0.0000 C   0  0
    2.6071   -6.0008    0.0000 C   0  0
    2.6383   -4.5012    0.0000 C   0  0
    1.3283   -6.7848    0.0000 C   0  0
  1  2  1  0
  2  3  2  0
  3  4  1  0
  3  5  1  0
  5  6  2  0
  5  7  1  0
  8  7  1  1
  8  9  1  0
  9 10  1  6
  9 11  1  0
 11 12  1  1
 12 13  1  0
 13 14  1  0
 14 15  1  0
 14 16  2  0
 11 17  1  0
 17 18  1  6
 17 19  1  0
 19 20  1  0
 20 21  1  6
 20 22  1  0
 22 23  2  0
 23 24  1  0
 25 24  1  1
 25 26  1  0
 26 27  1  1
 26 28  1  0
 28 29  1  0
 29 30  1  0
 30 31  1  1
 32 31  1  1
 32 33  1  0
 33 34  1  0
 34 35  1  1
 35 36  2  0
 35 37  1  0
 34 38  1  0
 38 39  1  6
 40 39  1  1
 40 41  1  0
 41 42  1  0
 42 43  1  1
 43 44  1  0
 42 45  1  0
 45 46  1  6
 45 47  1  0
 47 48  1  1
 47 49  1  0
 49 40  1  0
 49 50  1  6
 38 51  1  0
 51 52  1  1
 51 53  1  0
 53 32  1  0
 53 54  1  6
 55 54  1  1
 55 56  1  0
 56 57  1  0
 57 58  1  1
 58 59  1  0
 57 60  1  0
 60 61  1  6
 60 62  1  0
 62 63  1  1
 62 64  1  0
 64 55  1  0
 64 65  1  6
 30 66  1  0
 66 67  1  6
 66 68  1  0
 68 69  1  0
 66 70  1  0
 70 26  1  0
 70 71  1  1
 71 72  1  0
 72 73  1  0
 73 25  1  0
 73 20  1  0
 73 74  1  1
 22 75  1  0
 75 11  1  0
 75 76  1  6
 76 77  1  0
 77  8  1  0
 77 78  1  0
 77 79  1  0
M  END
> <Smiles>
C/C=C(/C)C(=O)O[C@H]1[C@H](O)[C@]2(COC(C)=O)[C@H](O)C[C@]3(C)C(=CC[C@@H]4[C@@]5(C)CC[C@H](O[C@@H]6O[C@H](C(=O)O)[C@@H](O[C@@H]7O[C@H](CO)[C@@H](O)[C@H](O)[C@H]7O)[C@H](O)[C@H]6O[C@@H]6O[C@H](CO)[C@@H]
(O)[C@H](O)[C@H]6O)[C@](C)(CO)[C@@H]5CC[C@]43C)[C@@H]2CC1(C)C

> <ID>
CHEMBL509354

> <standard_value>
68850

> <IC50_uM>
68.85

> <Activity>
No

> <pIC50>
4.162096055

> <BCI>
0

$$$$

  SciTegic03012415362D

 31 34  0  0  0  0            999 V2000
   -5.1932   -2.9590    0.0000 C   0  0
   -3.8994   -3.7180    0.0000 C   0  0
   -3.9097   -5.2180    0.0000 C   0  0
   -2.6159   -5.9769    0.0000 C   0  0
   -1.3117   -5.2360    0.0000 C   0  0
   -0.0156   -5.9927    0.0000 N   0  0
   -0.0220   -7.4936    0.0000 C   0  0
    1.2723   -8.2517    0.0000 N   0  0
    1.2629   -9.7517    0.0000 C   0  0
   -0.0409  -10.4935    0.0000 C   0  0
   -1.3352   -9.7354    0.0000 C   0  0
   -2.6412  -10.4749    0.0000 N   0  0
   -2.6532  -11.9749    0.0000 C   0  0
   -3.9351   -9.7145    0.0000 C   0  0
   -5.2414  -10.4518    0.0000 C   0  0
   -6.5331   -9.6892    0.0000 C   0  0
   -6.5184   -8.1892    0.0000 C   0  0
   -7.6229   -7.1754    0.0000 C   0  0
   -9.0931   -7.4731    0.0000 C   0  0
   -6.9994   -5.8111    0.0000 N   0  0
   -7.7367   -4.5048    0.0000 C   0  0
   -5.5093   -5.9825    0.0000 N   0  0
   -5.2121   -7.4520    0.0000 C   0  0
   -3.9205   -8.2146    0.0000 C   0  0
   -1.3257   -8.2354    0.0000 N   0  0
   -1.3014   -3.7360    0.0000 C   0  0
   -2.5952   -2.9770    0.0000 C   0  0
   -2.5848   -1.4762    0.0000 S   0  0
   -3.8789   -0.7177    0.0000 N   0  0
   -1.2811   -0.7344    0.0000 O   0  0
   -2.5751    0.0238    0.0000 O   0  0
  1  2  1  0
  2  3  2  0
  3  4  1  0
  4  5  2  0
  5  6  1  0
  6  7  1  0
  7  8  2  0
  8  9  1  0
  9 10  2  0
 10 11  1  0
 11 12  1  0
 12 13  1  0
 12 14  1  0
 14 15  1  0
 15 16  2  0
 16 17  1  0
 17 18  2  0
 18 19  1  0
 18 20  1  0
 20 21  1  0
 20 22  1  0
 22 23  2  0
 23 17  1  0
 23 24  1  0
 24 14  2  0
 11 25  2  0
 25  7  1  0
  5 26  1  0
 26 27  2  0
 27  2  1  0
 27 28  1  0
 28 29  1  0
 28 30  2  0
 28 31  2  0
M  END
> <Smiles>
Cc1ccc(Nc2nccc(N(C)c3ccc4c(C)n(C)nc4c3)n2)cc1S(N)(=O)=O

> <ID>
CHEMBL477772

> <standard_value>
69047.73

> <IC50_uM>
69.04773

> <Activity>
No

> <pIC50>
4.160850595

> <BCI>
0

$$$$

  SciTegic03012415362D

 38 44  0  0  1  0            999 V2000
   10.2664    0.6812    0.0000 C   0  0
    9.3466   -0.5037    0.0000 C   0  0
    9.9133   -1.8926    0.0000 C   0  0
    7.8596   -0.3004    0.0000 C   0  0
    6.9393   -1.4860    0.0000 C   0  0
    5.5000   -1.2900    0.0000 C   0  0  3  0  0  0
    5.0300    0.0000    0.0000 O   0  0
    3.8300    0.7200    0.0000 C   0  0
    2.4500    0.5000    0.0000 C   0  0  2  0  0  0
    3.3200   -0.7100    0.0000 C   0  0  1  0  0  0
    4.4894    0.2361    0.0000 C   0  0
    4.2484    1.7174    0.0000 N   0  0
    5.3101    2.7592    0.0000 C   0  0
    4.6260    4.0941    0.0000 C   0  0
    3.1450    3.8560    0.0000 C   0  0
    2.9139    2.3739    0.0000 C   0  0
    3.8000   -3.2800    0.0000 C   0  0  1  0  0  0
    2.4200   -3.0200    0.0000 C   0  0
    1.5700   -1.9700    0.0000 C   0  0
    0.3100   -2.6400    0.0000 C   0  0
    0.2805   -4.1397    0.0000 O   0  0
   -0.8900   -1.9400    0.0000 C   0  0
   -0.8900   -0.5300    0.0000 C   0  0
   -2.1100    0.1600    0.0000 C   0  0
   -3.3300   -0.5300    0.0000 C   0  0
   -3.3300   -1.9400    0.0000 C   0  0
   -2.1100   -2.6400    0.0000 C   0  0
   -2.1100   -4.1400    0.0000 O   0  0
   -4.5500   -2.6400    0.0000 C   0  0
   -5.7600   -1.9400    0.0000 C   0  0
   -5.7600   -0.5300    0.0000 C   0  0
   -5.7209    0.9695    0.0000 C   0  0
   -7.0433   -1.3066    0.0000 C   0  0
   -4.5500    0.1600    0.0000 O   0  0
    0.3100    0.1600    0.0000 O   0  0
    1.5500   -0.5300    0.0000 C   0  0  2  0  0  0
    5.0100   -2.5900    0.0000 C   0  0
    6.1510   -3.5638    0.0000 O   0  0
  1  2  1  0
  2  3  1  0
  2  4  2  0
  4  5  1  0
  6  5  1  4
  6  7  1  0
  7  8  1  0
  9  8  1  6
  9 10  1  0
 10 11  1  1
 11 12  1  0
 12 13  1  0
 13 14  1  0
 14 15  1  0
 15 16  1  0
 16 12  1  0
 10 17  1  0
 17 18  1  6
 18 19  2  0
 19 20  1  0
 20 21  2  0
 20 22  1  0
 22 23  2  0
 23 24  1  0
 24 25  2  0
 25 26  1  0
 26 27  2  0
 27 22  1  0
 27 28  1  0
 26 29  1  0
 29 30  2  0
 30 31  1  0
 31 32  1  0
 31 33  1  0
 31 34  1  0
 34 25  1  0
 23 35  1  0
 36 35  1  6
 36 19  1  0
 36  9  1  0
 36  6  1  0
 17 37  1  0
 37  6  1  0
 37 38  2  0
M  END
> <Smiles>
CC(C)=CCC12OC[C@@H]3[C@@H](CN4CCCC4)[C@@H](C=C4C(=O)c5c(cc6c(c5O)C=CC(C)(C)O6)O[C@]431)C2=O

> <ID>
CHEMBL2336604

> <standard_value>
70300

> <IC50_uM>
70.3

> <Activity>
No

> <pIC50>
4.153044675

> <BCI>
0

$$$$

  SciTegic03012415362D

 40 45  0  0  1  0            999 V2000
    6.4983   -0.7414    0.0000 C   0  0
    5.2003   -1.4932    0.0000 C   0  0
    5.2029   -2.9932    0.0000 C   0  0
    3.8990   -0.7455    0.0000 C   0  0
    2.6003   -1.4977    0.0000 C   0  0
    1.2990   -0.7500    0.0000 C   0  0
    1.2990    0.7500    0.0000 C   0  0
    2.5981    1.5000    0.0000 O   0  0
    0.0000    1.5000    0.0000 C   0  0
   -1.2990    0.7500    0.0000 C   0  0
   -2.5981    1.5000    0.0000 O   0  0
   -1.2990   -0.7500    0.0000 C   0  0
    0.0000   -1.5000    0.0000 C   0  0
    0.0000   -3.0000    0.0000 O   0  0
   -1.2990   -3.7500    0.0000 C   0  0  1  0  0  0
   -2.5981   -3.0000    0.0000 C   0  0
   -3.6733   -1.9297    0.0000 C   0  0
   -4.6833   -3.0387    0.0000 C   0  0  1  0  0  0
   -4.2278   -4.4679    0.0000 C   0  0
   -4.8933   -5.8123    0.0000 O   0  0
   -2.8256   -3.9670    0.0000 C   0  0  3  0  0  0
   -1.4829   -4.6510    0.0000 C   0  0
   -0.2326   -3.8208    0.0000 C   0  0
    1.1119   -4.4877    0.0000 C   0  0
    2.3616   -3.6581    0.0000 C   0  0
    1.2061   -5.9848    0.0000 C   0  0
   -3.1375   -5.4343    0.0000 O   0  0
   -1.8384   -6.1843    0.0000 C   0  0
   -0.7237   -5.1806    0.0000 C   0  0  2  0  0  0
   -3.4146   -4.9826    0.0000 C   0  0  1  0  0  0
   -4.2298   -6.2341    0.0000 C   0  0
   -3.5531   -7.5738    0.0000 N   0  0
   -4.3706   -8.8314    0.0000 C   0  0
   -3.6902  -10.1683    0.0000 C   0  0
   -2.1923  -10.2474    0.0000 N   0  0
   -1.5119  -11.5842    0.0000 C   0  0
   -1.3748   -8.9898    0.0000 C   0  0
   -2.0552   -7.6530    0.0000 C   0  0
   -2.5981   -1.5000    0.0000 C   0  0
   -3.8971   -0.7500    0.0000 O   0  0
  1  2  1  0
  2  3  1  0
  2  4  2  0
  4  5  1  0
  5  6  1  0
  6  7  2  0
  7  8  1  0
  7  9  1  0
  9 10  2  0
 10 11  1  0
 10 12  1  0
 12 13  2  0
 13  6  1  0
 13 14  1  0
 15 14  1  6
 15 16  1  0
 16 17  2  0
 18 17  1  6
 18 19  1  0
 19 20  2  0
 19 21  1  0
 21 15  1  0
 21 22  1  4
 22 23  1  0
 23 24  2  0
 24 25  1  0
 24 26  1  0
 21 27  1  0
 27 28  1  0
 29 28  1  6
 29 15  1  0
 29 30  1  0
 30 18  1  0
 30 31  1  1
 31 32  1  0
 32 33  1  0
 33 34  1  0
 34 35  1  0
 35 36  1  0
 35 37  1  0
 37 38  1  0
 38 32  1  0
 16 39  1  0
 39 12  1  0
 39 40  2  0
M  END
> <Smiles>
CC(C)=CCc1c(O)cc(O)c2c1O[C@@]13C(=C[C@H]4C(=O)C1(CC=C(C)C)OC[C@@H]3[C@H]4CN1CCN(C)CC1)C2=O

> <ID>
CHEMBL2335673

> <standard_value>
71600

> <IC50_uM>
71.6

> <Activity>
No

> <pIC50>
4.145086978

> <BCI>
0

$$$$

  SciTegic03012415362D

 21 24  0  0  0  0            999 V2000
   -0.6923   -4.0811    0.0000 C   0  0
    0.3114   -2.9665    0.0000 N   0  0
    1.8032   -3.1233    0.0000 C   0  0
    2.4133   -1.7530    0.0000 C   0  0
    3.8794   -1.4442    0.0000 C   0  0
    4.8823   -2.5608    0.0000 C   0  0
    4.5513   -4.0107    0.0000 C   0  0
    3.1755   -4.6084    0.0000 O   0  0
    5.8480   -4.7648    0.0000 N   0  0
    6.9651   -3.7649    0.0000 C   0  0
    8.4564   -3.9264    0.0000 C   0  0
    9.3418   -2.7156    0.0000 C   0  0
    8.7360   -1.3434    0.0000 C   0  0
    7.2447   -1.1820    0.0000 N   0  0
    6.3593   -2.3927    0.0000 C   0  0
    1.2990   -0.7500    0.0000 C   0  0
    1.2990    0.7500    0.0000 C   0  0
    0.0000    1.5000    0.0000 C   0  0
   -1.2990    0.7500    0.0000 C   0  0
   -1.2990   -0.7500    0.0000 C   0  0
    0.0000   -1.5000    0.0000 C   0  0
  1  2  1  0
  2  3  1  0
  3  4  2  0
  4  5  1  0
  5  6  2  0
  6  7  1  0
  7  8  2  0
  7  9  1  0
  9 10  1  0
 10 11  2  0
 11 12  1  0
 12 13  2  0
 13 14  1  0
 14 15  2  0
 15 10  1  0
 15  6  1  0
  4 16  1  0
 16 17  2  0
 17 18  1  0
 18 19  2  0
 19 20  1  0
 20 21  2  0
 21 16  1  0
 21  2  1  0
M  END
> <Smiles>
Cn1cc(/C=C2\C(=O)Nc3cccnc32)c2ccccc21

> <ID>
CHEMBL176544

> <standard_value>
71977.96

> <IC50_uM>
71.97796

> <Activity>
No

> <pIC50>
4.142800466

> <BCI>
0

$$$$

  SciTegic03012415362D

 24 25  0  0  0  0            999 V2000
    5.1873   -7.5109    0.0000 C   0  0
    5.1894   -6.0109    0.0000 C   0  0
    3.8912   -5.2578    0.0000 O   0  0
    3.8933   -3.7570    0.0000 P   0  0
    5.1937   -3.0093    0.0000 O   0  0
    5.2181   -4.5224    0.0000 O   0  0
    6.5185   -3.7732    0.0000 C   0  0
    7.8173   -4.5236    0.0000 C   0  0
    2.5951   -3.0039    0.0000 O   0  0
    2.5973   -1.5031    0.0000 C   0  0
    1.2990   -0.7500    0.0000 N   0  0
    1.2990    0.7500    0.0000 C   0  0
    2.5981    1.5000    0.0000 O   0  0
    0.0000    1.5000    0.0000 C   0  0
    0.0000    3.0000    0.0000 F   0  0
   -1.2990    0.7500    0.0000 C   0  0
   -1.2990   -0.7500    0.0000 N   0  0
   -2.5987   -1.5004    0.0000 C   0  0  3  0  0  0
   -3.9511   -0.8815    0.0000 C   0  0
   -4.9530   -1.9978    0.0000 C   0  0
   -4.2010   -3.2957    0.0000 C   0  0
   -2.7343   -2.9815    0.0000 O   0  0
    0.0000   -1.5000    0.0000 C   0  0
    0.0000   -3.0000    0.0000 O   0  0
  1  2  1  0
  2  3  1  0
  3  4  1  0
  4  5  2  0
  4  6  1  0
  6  7  1  0
  7  8  1  0
  4  9  1  0
  9 10  1  0
 10 11  1  0
 11 12  1  0
 12 13  2  0
 12 14  1  0
 14 15  1  0
 14 16  2  0
 16 17  1  0
 18 17  1  4
 18 19  1  0
 19 20  1  0
 20 21  1  0
 21 22  1  0
 22 18  1  0
 17 23  1  0
 23 11  1  0
 23 24  2  0
M  END
> <Smiles>
CCOP(=O)(OCC)OCn1c(=O)c(F)cn(C2CCCO2)c1=O

> <ID>
CHEMBL252568

> <standard_value>
73000

> <IC50_uM>
73

> <Activity>
No

> <pIC50>
4.13667714

> <BCI>
0

$$$$

  SciTegic03012415362D

 26 29  0  0  0  0            999 V2000
   -3.9232   -1.7735    0.0000 O   0  0
   -5.0098   -2.8075    0.0000 C   0  0
   -4.6570   -4.2663    0.0000 N   0  0
   -3.2175   -4.6910    0.0000 C   0  0
   -2.8628   -6.1485    0.0000 C   0  0
   -1.4233   -6.5700    0.0000 C   0  0
   -0.3384   -5.5341    0.0000 C   0  0
    1.1012   -5.9552    0.0000 Cl  0  0
   -0.6928   -4.0817    0.0000 C   0  0
    0.3114   -2.9665    0.0000 C   0  0
    1.8032   -3.1233    0.0000 N   0  0
    2.4133   -1.7530    0.0000 N   0  0
    1.2990   -0.7500    0.0000 C   0  0
    1.2990    0.7500    0.0000 C   0  0
    2.5981    1.5000    0.0000 Cl  0  0
    0.0000    1.5000    0.0000 C   0  0
   -1.2990    0.7500    0.0000 C   0  0
   -1.2990   -0.7500    0.0000 C   0  0
    0.0000   -1.5000    0.0000 N   0  0
   -2.1327   -3.6551    0.0000 C   0  0
   -6.4493   -2.3828    0.0000 C   0  0
   -6.8041   -0.9253    0.0000 C   0  0
   -8.2436   -0.5037    0.0000 C   0  0
   -9.3285   -1.5396    0.0000 C   0  0
   -8.9738   -2.9970    0.0000 C   0  0
   -7.5343   -3.4186    0.0000 C   0  0
  1  2  2  0
  2  3  1  0
  3  4  1  0
  4  5  2  0
  5  6  1  0
  6  7  2  0
  7  8  1  0
  7  9  1  0
  9 10  1  0
 10 11  2  0
 11 12  1  0
 12 13  2  0
 13 14  1  0
 14 15  1  0
 14 16  2  0
 16 17  1  0
 17 18  2  0
 18 19  1  0
 19 10  1  0
 19 13  1  0
  9 20  2  0
 20  4  1  0
  2 21  1  0
 21 22  2  0
 22 23  1  0
 23 24  2  0
 24 25  1  0
 25 26  2  0
 26 21  1  0
M  END
> <Smiles>
O=C(Nc1ccc(Cl)c(-c2nnc3c(Cl)cccn23)c1)c1ccccc1

> <ID>
CHEMBL4647285

> <standard_value>
73500

> <IC50_uM>
73.5

> <Activity>
No

> <pIC50>
4.133712661

> <BCI>
0

$$$$

  SciTegic03012415362D

 22 25  0  0  0  0            999 V2000
    2.5981   -1.5000    0.0000 O   0  0
    1.2990   -0.7500    0.0000 C   0  0
    1.2990    0.7500    0.0000 C   0  0
    0.0000    1.5000    0.0000 C   0  0
    0.0000    3.0008    0.0000 C   0  0
    1.2978    3.7529    0.0000 C   0  0
    1.2954    5.2529    0.0000 C   0  0
   -0.0048    6.0009    0.0000 C   0  0
   -1.3026    5.2488    0.0000 C   0  0
   -1.3002    3.7488    0.0000 C   0  0
   -1.2990    0.7500    0.0000 N   0  0
   -1.2990   -0.7500    0.0000 C   0  0
   -2.4133   -1.7530    0.0000 C   0  0
   -1.8032   -3.1233    0.0000 C   0  0
   -2.5536   -4.4230    0.0000 C   0  0
   -4.0444   -4.5346    0.0000 C   0  0
   -4.6946   -5.8864    0.0000 C   0  0
   -3.8489   -7.1253    0.0000 C   0  0
   -2.3532   -7.0124    0.0000 C   0  0
   -1.7031   -5.6606    0.0000 C   0  0
   -0.3114   -2.9665    0.0000 N   0  0
    0.0000   -1.5000    0.0000 N   0  0
  1  2  2  0
  2  3  1  0
  3  4  2  0
  4  5  1  0
  5  6  2  0
  6  7  1  0
  7  8  2  0
  8  9  1  0
  9 10  2  0
 10  5  1  0
  4 11  1  0
 11 12  1  0
 12 13  2  0
 13 14  1  0
 14 15  1  0
 15 16  2  0
 16 17  1  0
 17 18  2  0
 18 19  1  0
 19 20  2  0
 20 15  1  0
 14 21  2  0
 21 22  1  0
 22  2  1  0
 22 12  1  0
M  END
> <Smiles>
O=c1cc(-c2ccccc2)[nH]c2cc(-c3ccccc3)nn12

> <ID>
CHEMBL4562455

> <standard_value>
73620

> <IC50_uM>
73.62

> <Activity>
No

> <pIC50>
4.133004187

> <BCI>
0

$$$$

  SciTegic03012415362D

 28 31  0  0  0  0            999 V2000
    2.5191  -12.2286    0.0000 C   0  0
    1.7776  -10.9247    0.0000 C   0  0
    0.2768  -10.9139    0.0000 C   0  0
   -0.4798  -12.2092    0.0000 C   0  0
   -1.9798  -12.2016    0.0000 N   0  0
   -2.7232  -10.8987    0.0000 C   0  0
   -1.9666   -9.6035    0.0000 N   0  0
   -0.4666   -9.6110    0.0000 C   0  0
    0.2883   -8.3139    0.0000 N   0  0
    1.7883   -8.3192    0.0000 C   0  0
    2.5428   -7.0227    0.0000 C   0  0
    1.7974   -5.7210    0.0000 N   0  0
    2.5497   -4.4224    0.0000 C   0  0
    1.8032   -3.1233    0.0000 C   0  0
    2.4133   -1.7530    0.0000 N   0  0
    1.2990   -0.7500    0.0000 C   0  0
    1.2990    0.7500    0.0000 C   0  0
    0.0000    1.5000    0.0000 C   0  0
    0.0000    3.0008    0.0000 C   0  0
    1.2985    3.7517    0.0000 F   0  0
   -1.2993    3.7504    0.0000 F   0  0
   -0.0007    4.5008    0.0000 F   0  0
   -1.2990    0.7500    0.0000 C   0  0
   -1.2990   -0.7500    0.0000 C   0  0
    0.0000   -1.5000    0.0000 C   0  0
    0.3114   -2.9665    0.0000 N   0  0
    0.2973   -5.7159    0.0000 C   0  0
   -0.4572   -7.0123    0.0000 C   0  0
  1  2  1  0
  2  3  1  0
  3  4  2  0
  4  5  1  0
  5  6  2  0
  6  7  1  0
  7  8  2  0
  8  3  1  0
  8  9  1  0
  9 10  1  0
 10 11  1  0
 11 12  1  0
 12 13  1  0
 13 14  1  0
 14 15  2  0
 15 16  1  0
 16 17  2  0
 17 18  1  0
 18 19  1  0
 19 20  1  0
 19 21  1  0
 19 22  1  0
 18 23  2  0
 23 24  1  0
 24 25  2  0
 25 16  1  0
 25 26  1  0
 26 14  1  0
 12 27  1  0
 27 28  1  0
 28  9  1  0
M  END
> <Smiles>
CCc1cncnc1N1CCN(Cc2nc3cc(C(F)(F)F)ccc3[nH]2)CC1

> <ID>
CHEMBL2134202

> <standard_value>
73816.85

> <IC50_uM>
73.81685

> <Activity>
No

> <pIC50>
4.131844491

> <BCI>
0

$$$$

  SciTegic03012415362D

 22 24  0  0  0  0            999 V2000
    2.5981   -1.5000    0.0000 O   0  0
    1.2990   -0.7500    0.0000 C   0  0
    1.2990    0.7500    0.0000 C   0  0
    2.5981    1.5000    0.0000 O   0  0
    0.0000    1.5000    0.0000 C   0  0
    0.0000    3.0008    0.0000 C   0  0
    1.2978    3.7529    0.0000 C   0  0
    1.2954    5.2529    0.0000 C   0  0
   -0.0048    6.0009    0.0000 C   0  0
   -0.0072    7.5009    0.0000 O   0  0
   -1.3026    5.2488    0.0000 C   0  0
   -2.6029    5.9967    0.0000 O   0  0
   -1.3002    3.7488    0.0000 C   0  0
   -1.2990    0.7500    0.0000 O   0  0
   -1.2990   -0.7500    0.0000 C   0  0
   -2.5981   -1.5000    0.0000 C   0  0
   -2.5981   -3.0000    0.0000 C   0  0
   -3.8971   -3.7500    0.0000 O   0  0
   -1.2990   -3.7500    0.0000 C   0  0
    0.0000   -3.0000    0.0000 C   0  0
    1.2991   -3.7500    0.0000 O   0  0
    0.0000   -1.5000    0.0000 C   0  0
  1  2  2  0
  2  3  1  0
  3  4  1  0
  3  5  2  0
  5  6  1  0
  6  7  2  0
  7  8  1  0
  8  9  2  0
  9 10  1  0
  9 11  1  0
 11 12  1  0
 11 13  2  0
 13  6  1  0
  5 14  1  0
 14 15  1  0
 15 16  2  0
 16 17  1  0
 17 18  1  0
 17 19  2  0
 19 20  1  0
 20 21  1  0
 20 22  2  0
 22  2  1  0
 22 15  1  0
M  END
> <Smiles>
O=c1c(O)c(-c2ccc(O)c(O)c2)oc2cc(O)cc(O)c12

> <ID>
CHEMBL50

> <standard_value>
77800

> <IC50_uM>
77.8

> <Activity>
No

> <pIC50>
4.109020403

> <BCI>
0

$$$$

  SciTegic03012415362D

 26 29  0  0  0  0            999 V2000
   -3.9232   -1.7735    0.0000 O   0  0
   -5.0098   -2.8075    0.0000 C   0  0
   -4.6570   -4.2663    0.0000 N   0  0
   -3.2175   -4.6910    0.0000 C   0  0
   -2.8628   -6.1485    0.0000 C   0  0
   -1.4233   -6.5700    0.0000 C   0  0
   -0.3384   -5.5341    0.0000 C   0  0
    1.1012   -5.9552    0.0000 Cl  0  0
   -0.6928   -4.0817    0.0000 C   0  0
    0.3114   -2.9665    0.0000 C   0  0
    1.8032   -3.1233    0.0000 N   0  0
    2.4133   -1.7530    0.0000 N   0  0
    1.2990   -0.7500    0.0000 C   0  0
    1.2990    0.7500    0.0000 C   0  0
    2.5981    1.5000    0.0000 Cl  0  0
    0.0000    1.5000    0.0000 C   0  0
   -1.2990    0.7500    0.0000 C   0  0
   -1.2990   -0.7500    0.0000 C   0  0
    0.0000   -1.5000    0.0000 N   0  0
   -2.1327   -3.6551    0.0000 C   0  0
   -6.4493   -2.3828    0.0000 C   0  0
   -6.8041   -0.9253    0.0000 C   0  0
   -8.2436   -0.5037    0.0000 C   0  0
   -9.3285   -1.5396    0.0000 C   0  0
   -8.9738   -2.9970    0.0000 C   0  0
   -7.5343   -3.4186    0.0000 N   0  0
  1  2  2  0
  2  3  1  0
  3  4  1  0
  4  5  2  0
  5  6  1  0
  6  7  2  0
  7  8  1  0
  7  9  1  0
  9 10  1  0
 10 11  2  0
 11 12  1  0
 12 13  2  0
 13 14  1  0
 14 15  1  0
 14 16  2  0
 16 17  1  0
 17 18  2  0
 18 19  1  0
 19 10  1  0
 19 13  1  0
  9 20  2  0
 20  4  1  0
  2 21  1  0
 21 22  2  0
 22 23  1  0
 23 24  2  0
 24 25  1  0
 25 26  2  0
 26 21  1  0
M  END
> <Smiles>
O=C(Nc1ccc(Cl)c(-c2nnc3c(Cl)cccn23)c1)c1ccccn1

> <ID>
CHEMBL4640208

> <standard_value>
79000

> <IC50_uM>
79

> <Activity>
No

> <pIC50>
4.102372909

> <BCI>
0

$$$$

  SciTegic03012415362D

 40 44  0  0  1  0            999 V2000
    5.1887   -6.0105    0.0000 C   0  0
    3.8912   -5.2578    0.0000 C   0  0
    3.8933   -3.7570    0.0000 C   0  0
    2.5951   -3.0039    0.0000 N   0  0
    1.2925   -3.7494    0.0000 C   0  0
   -0.0048   -2.9949    0.0000 C   0  0
   -1.3067   -3.7399    0.0000 C   0  0
    2.5973   -1.5031    0.0000 C   0  0
    1.2990   -0.7500    0.0000 C   0  0  2  0  0  0
    1.2990    0.7500    0.0000 C   0  0  1  0  0  0
    0.7500   -0.7205    0.0000 C   0  0
   -0.7500   -0.7205    0.0000 O   0  0
   -1.2990    0.7500    0.0000 C   0  0  3  0  0  0
   -2.2585   -0.4225    0.0000 C   0  0
   -3.7435   -0.2048    0.0000 C   0  0
   -4.6752   -1.3814    0.0000 C   0  0
   -6.1593   -1.1639    0.0000 C   0  0
   -4.1220   -2.7757    0.0000 C   0  0
   -1.2990   -0.7500    0.0000 C   0  0
   -2.5981   -1.5000    0.0000 O   0  0
    0.0000   -1.5000    0.0000 C   0  0  2  0  0  0
    1.1367    0.4746    0.0000 C   0  0
   -0.7043    2.8783    0.0000 C   0  0
    0.0457    4.1773    0.0000 C   0  0
   -0.7043    5.4764    0.0000 O   0  0
    1.5457    4.1773    0.0000 C   0  0
    2.2957    2.8783    0.0000 C   0  0
    3.7957    2.8783    0.0000 C   0  0
    4.5457    4.1773    0.0000 C   0  0
    6.0457    4.1773    0.0000 O   0  0
    3.7957    5.4764    0.0000 C   0  0
    4.5435    6.7777    0.0000 C   0  0
    3.7912    8.0764    0.0000 C   0  0
    4.5389    9.3777    0.0000 C   0  0
    3.7871   10.6756    0.0000 C   0  0
    6.0389    9.3803    0.0000 C   0  0
    2.2957    5.4764    0.0000 C   0  0
    1.5457    6.7754    0.0000 O   0  0
    1.5457    1.5793    0.0000 O   0  0
    0.0000    1.5000    0.0000 C   0  0  1  0  0  0
  1  2  1  0
  2  3  1  0
  3  4  1  0
  4  5  1  0
  5  6  1  0
  6  7  1  0
  4  8  1  0
  9  8  1  1
  9 10  1  0
 10 11  1  6
 11 12  1  0
 12 13  1  0
 13 14  1  4
 14 15  1  0
 15 16  2  0
 16 17  1  0
 16 18  1  0
 13 19  1  0
 19 20  2  0
 19 21  1  0
 21  9  1  0
 21 22  1  1
 22 23  2  0
 23 24  1  0
 24 25  2  0
 24 26  1  0
 26 27  2  0
 27 28  1  0
 28 29  2  0
 29 30  1  0
 29 31  1  0
 31 32  1  0
 32 33  1  0
 33 34  2  0
 34 35  1  0
 34 36  1  0
 31 37  2  0
 37 26  1  0
 37 38  1  0
 27 39  1  0
 40 39  1  6
 40 23  1  0
 40 10  1  0
 40 13  1  0
M  END
> <Smiles>
CCCN(CCC)C[C@@H]1[C@H]2COC3(CC=C(C)C)C(=O)[C@@H]1C=C1C(=O)c4c(cc(O)c(CC=C(C)C)c4O)O[C@]123

> <ID>
CHEMBL2336125

> <standard_value>
79200

> <IC50_uM>
79.2

> <Activity>
No

> <pIC50>
4.101274818

> <BCI>
0

$$$$

  SciTegic03012415362D

 79 86  0  0  1  0            999 V2000
    5.2103   -5.9944    0.0000 C   0  0
    3.9097   -5.2471    0.0000 C   0  0
    3.9057   -3.7463    0.0000 C   0  0
    5.2029   -2.9932    0.0000 C   0  0
    2.6044   -2.9986    0.0000 C   0  0
    1.3071   -3.7516    0.0000 O   0  0
    2.6003   -1.4977    0.0000 O   0  0
    1.2990   -0.7500    0.0000 C   0  0  1  0  0  0
    1.2990    0.7500    0.0000 C   0  0  2  0  0  0
    2.1651    1.2500    0.0000 O   0  0
    0.0000    1.5000    0.0000 C   0  0  2  0  0  0
    1.2997    2.2504    0.0000 C   0  0
    2.6000    1.5008    0.0000 O   0  0
    3.8997    2.2513    0.0000 C   0  0
    3.8992    3.7513    0.0000 C   0  0
    5.1992    1.5021    0.0000 O   0  0
    0.0000    3.0000    0.0000 C   0  0  2  0  0  0
    1.2990    3.7500    0.0000 O   0  0
   -1.2991    3.7500    0.0000 C   0  0
   -2.5981    3.0000    0.0000 C   0  0  2  0  0  0
   -2.5981    4.0000    0.0000 C   0  0
   -2.5981    1.5000    0.0000 C   0  0
   -3.8971    0.7500    0.0000 C   0  0
   -5.1962    1.5000    0.0000 C   0  0
   -5.1962    3.0000    0.0000 C   0  0  2  0  0  0
   -6.4952    3.7500    0.0000 C   0  0  1  0  0  0
   -6.4952    2.2500    0.0000 C   0  0
   -7.7943    3.0000    0.0000 C   0  0
   -9.0933    3.7500    0.0000 C   0  0
   -9.0933    5.2500    0.0000 C   0  0  2  0  0  0
  -10.3946    5.9977    0.0000 O   0  0
  -11.6933    5.2454    0.0000 C   0  0  2  0  0  0
  -11.6882    3.7454    0.0000 O   0  0
  -12.9846    2.9909    0.0000 C   0  0  2  0  0  0
  -13.4901    1.5778    0.0000 C   0  0
  -12.5204    0.4334    0.0000 O   0  0
  -14.4740    1.3990    0.0000 O   0  0
  -14.2862    3.7364    0.0000 C   0  0  1  0  0  0
  -15.5818    2.9788    0.0000 O   0  0
  -15.5745    1.4780    0.0000 C   0  0  2  0  0  0
  -14.2703    0.7369    0.0000 O   0  0
  -14.2599   -0.7630    0.0000 C   0  0  2  0  0  0
  -12.9535   -1.5018    0.0000 C   0  0
  -11.6608   -0.7410    0.0000 O   0  0
  -15.5538   -1.5220    0.0000 C   0  0  1  0  0  0
  -15.5434   -3.0220    0.0000 O   0  0
  -16.8579   -0.7810    0.0000 C   0  0  2  0  0  0
  -18.1518   -1.5400    0.0000 O   0  0
  -16.8683    0.7190    0.0000 C   0  0  1  0  0  0
  -18.1725    1.4599    0.0000 O   0  0
  -14.2914    5.2364    0.0000 C   0  0  2  0  0  0
  -15.5930    5.9819    0.0000 O   0  0
  -12.9950    5.9909    0.0000 C   0  0  1  0  0  0
  -13.0033    7.4917    0.0000 O   0  0
  -14.3067    8.2357    0.0000 C   0  0  2  0  0  0
  -15.6006    7.4767    0.0000 O   0  0
  -16.9048    8.2177    0.0000 C   0  0  2  0  0  0
  -18.1978    7.4556    0.0000 C   0  0
  -18.1852    5.9556    0.0000 O   0  0
  -16.9153    9.7176    0.0000 C   0  0  1  0  0  0
  -18.2195   10.4586    0.0000 O   0  0
  -15.6215   10.4766    0.0000 C   0  0  2  0  0  0
  -15.6319   11.9766    0.0000 O   0  0
  -14.3172    9.7357    0.0000 C   0  0  1  0  0  0
  -13.0235   10.4947    0.0000 O   0  0
   -7.7943    6.0000    0.0000 C   0  0  2  0  0  0
   -6.4772    6.7179    0.0000 C   0  0
   -9.0942    6.7084    0.0000 C   0  0
   -9.1439    7.7071    0.0000 O   0  0
   -6.4952    5.2500    0.0000 C   0  0  2  0  0  0
   -5.1962    6.0000    0.0000 C   0  0
   -3.8971    5.2500    0.0000 C   0  0
   -3.8971    3.7500    0.0000 C   0  0  1  0  0  0
   -3.0311    4.2500    0.0000 C   0  0
   -1.2990    0.7500    0.0000 C   0  0  2  0  0  0
   -1.2990   -0.7500    0.0000 C   0  0
    0.0000   -1.5000    0.0000 C   0  0
    1.3164   -2.2191    0.0000 C   0  0
   -1.3163   -2.2193    0.0000 C   0  0
  1  2  1  0
  2  3  2  0
  3  4  1  0
  3  5  1  0
  5  6  2  0
  5  7  1  0
  8  7  1  6
  8  9  1  0
  9 10  1  1
  9 11  1  0
 11 12  1  6
 12 13  1  0
 13 14  1  0
 14 15  1  0
 14 16  2  0
 11 17  1  0
 17 18  1  1
 17 19  1  0
 19 20  1  0
 20 21  1  1
 20 22  1  0
 22 23  2  0
 23 24  1  0
 25 24  1  6
 25 26  1  0
 26 27  1  6
 26 28  1  0
 28 29  1  0
 29 30  1  0
 30 31  1  6
 32 31  1  6
 32 33  1  0
 33 34  1  0
 34 35  1  6
 35 36  2  0
 35 37  1  0
 34 38  1  0
 38 39  1  1
 40 39  1  6
 40 41  1  0
 41 42  1  0
 42 43  1  6
 43 44  1  0
 42 45  1  0
 45 46  1  1
 45 47  1  0
 47 48  1  6
 47 49  1  0
 49 40  1  0
 49 50  1  1
 38 51  1  0
 51 52  1  6
 51 53  1  0
 53 32  1  0
 53 54  1  1
 55 54  1  6
 55 56  1  0
 56 57  1  0
 57 58  1  6
 58 59  1  0
 57 60  1  0
 60 61  1  1
 60 62  1  0
 62 63  1  6
 62 64  1  0
 64 55  1  0
 64 65  1  1
 30 66  1  0
 66 67  1  1
 66 68  1  0
 68 69  1  0
 66 70  1  0
 70 26  1  0
 70 71  1  6
 71 72  1  0
 72 73  1  0
 73 25  1  0
 73 20  1  0
 73 74  1  6
 22 75  1  0
 75 11  1  0
 75 76  1  1
 76 77  1  0
 77  8  1  0
 77 78  1  0
 77 79  1  0
M  END
> <Smiles>
C/C=C(\C)C(=O)O[C@H]1[C@H](O)[C@]2(COC(C)=O)[C@H](O)C[C@]3(C)C(=CC[C@@H]4[C@@]5(C)CC[C@H](O[C@@H]6O[C@H](C(=O)O)[C@@H](O[C@@H]7O[C@H](CO)[C@@H](O)[C@H](O)[C@H]7O)[C@H](O)[C@H]6O[C@@H]6O[C@H](CO)[C@@H]
(O)[C@H](O)[C@H]6O)[C@](C)(CO)[C@@H]5CC[C@]43C)[C@@H]2CC1(C)C

> <ID>
CHEMBL500473

> <standard_value>
80360

> <IC50_uM>
80.36

> <Activity>
No

> <pIC50>
4.094960072

> <BCI>
0

$$$$

  SciTegic03012415362D

 29 31  0  0  0  0            999 V2000
    3.8976   -0.7553    0.0000 O   0  0
    2.5973   -1.5031    0.0000 C   0  0
    2.5951   -3.0039    0.0000 C   0  0
    3.8915   -3.7585    0.0000 C   0  0
    3.8864   -5.2585    0.0000 C   0  0
    2.5847   -6.0040    0.0000 C   0  0
    2.5795   -7.5048    0.0000 C   0  0
    3.8755   -8.2601    0.0000 F   0  0
    1.2777   -8.2499    0.0000 F   0  0
    2.5736   -9.0048    0.0000 F   0  0
    1.2883   -5.2495    0.0000 C   0  0
   -0.0133   -5.9950    0.0000 F   0  0
    1.2935   -3.7495    0.0000 C   0  0
    1.2990   -0.7500    0.0000 C   0  0
    1.2990    0.7500    0.0000 C   0  0
    0.0000    1.5000    0.0000 C   0  0
   -1.2990    0.7500    0.0000 C   0  0
   -2.7248    1.2135    0.0000 N   0  0
   -3.6065    0.0000    0.0000 C   0  0
   -5.1047   -0.0031    0.0000 N   0  0
   -5.8532   -1.3040    0.0000 C   0  0
   -5.1009   -2.6017    0.0000 O   0  0
   -7.3541   -1.3071    0.0000 C   0  0
   -8.1022   -2.6072    0.0000 F   0  0
   -8.8541   -1.3095    0.0000 F   0  0
   -8.1063   -0.0094    0.0000 F   0  0
   -2.7248   -1.2135    0.0000 C   0  0
   -1.2990   -0.7500    0.0000 N   0  0
    0.0000   -1.5000    0.0000 C   0  0
  1  2  2  0
  2  3  1  0
  3  4  2  0
  4  5  1  0
  5  6  2  0
  6  7  1  0
  7  8  1  0
  7  9  1  0
  7 10  1  0
  6 11  1  0
 11 12  1  0
 11 13  2  0
 13  3  1  0
  2 14  1  0
 14 15  1  0
 15 16  2  0
 16 17  1  0
 17 18  2  0
 18 19  1  0
 19 20  1  0
 20 21  1  0
 21 22  2  0
 21 23  1  0
 23 24  1  0
 23 25  1  0
 23 26  1  0
 19 27  2  0
 27 28  1  0
 28 17  1  0
 28 29  1  0
 29 14  2  0
M  END
> <Smiles>
O=C(c1ccc(C(F)(F)F)c(F)c1)c1ccc2nc(NC(=O)C(F)(F)F)cn2c1

> <ID>
CHEMBL1086738

> <standard_value>
80600

> <IC50_uM>
80.6

> <Activity>
No

> <pIC50>
4.093664958

> <BCI>
0

$$$$

  SciTegic03012415362D

 22 24  0  0  0  0            999 V2000
   -0.6923   -4.0811    0.0000 C   0  0
    0.3114   -2.9665    0.0000 N   0  0
    1.8032   -3.1233    0.0000 C   0  0
    2.4133   -1.7530    0.0000 N   0  0
    1.2990   -0.7500    0.0000 C   0  0
    1.2990    0.7500    0.0000 C   0  0
    2.5972    1.5031    0.0000 N   0  0
    2.5951    3.0039    0.0000 C   0  0
    3.8933    3.7570    0.0000 C   0  0
    3.8933    5.2571    0.0000 C   0  0
    5.1924    6.0071    0.0000 C   0  0
    6.4914    5.2571    0.0000 C   0  0
    6.4915    3.7571    0.0000 C   0  0
    5.1925    3.0071    0.0000 C   0  0
    0.0000    1.5000    0.0000 N   0  0
   -1.2990    0.7500    0.0000 C   0  0
   -2.6003    1.4977    0.0000 N   0  0
   -3.8990    0.7455    0.0000 C   0  0
   -5.2003    1.4932    0.0000 C   0  0
   -6.4983    0.7413    0.0000 O   0  0
   -1.2990   -0.7500    0.0000 N   0  0
    0.0000   -1.5000    0.0000 C   0  0
  1  2  1  0
  2  3  1  0
  3  4  2  0
  4  5  1  0
  5  6  2  0
  6  7  1  0
  7  8  1  0
  8  9  1  0
  9 10  2  0
 10 11  1  0
 11 12  2  0
 12 13  1  0
 13 14  2  0
 14  9  1  0
  6 15  1  0
 15 16  2  0
 16 17  1  0
 17 18  1  0
 18 19  1  0
 19 20  1  0
 16 21  1  0
 21 22  2  0
 22  5  1  0
 22  2  1  0
M  END
> <Smiles>
Cn1cnc2c(NCc3ccccc3)nc(NCCO)nc21

> <ID>
CHEMBL280074

> <standard_value>
81500

> <IC50_uM>
81.5

> <Activity>
No

> <pIC50>
4.088842391

> <BCI>
0

$$$$

  SciTegic03012415362D

 24 27  0  0  1  0            999 V2000
   -0.2478   -8.1014    0.0000 C   0  0
   -0.8612   -6.7326    0.0000 C   0  0
   -2.3534   -6.5798    0.0000 C   0  0
    0.0174   -5.5157    0.0000 C   0  0
   -0.5963   -4.1461    0.0000 C   0  0
    0.2851   -2.9666    0.0000 C   0  0  1  0  0  0
    1.7758   -3.1329    0.0000 O   0  0
    2.3947   -1.7666    0.0000 C   0  0
    2.8515   -0.3378    0.0000 C   0  0
    3.3692   -2.9068    0.0000 C   0  0
    1.2990   -0.7500    0.0000 C   0  0  2  0  0  0
    1.2990    0.7500    0.0000 C   0  0
    0.0000    1.5000    0.0000 C   0  0  1  0  0  0
   -1.2990    0.7500    0.0000 C   0  0
   -1.2990   -0.7500    0.0000 C   0  0
   -2.5969   -1.5137    0.0000 C   0  0
   -3.8988   -0.7687    0.0000 O   0  0
   -2.5976   -3.0137    0.0000 C   0  0
   -1.2989   -3.7643    0.0000 C   0  0  3  0  0  0
   -1.2996   -5.2643    0.0000 C   0  0
    0.0005   -3.0149    0.0000 O   0  0
    0.0000   -1.5000    0.0000 C   0  0  2  0  0  0
   -1.2151   -0.4213    0.0000 C   0  0
   -2.7149   -0.3978    0.0000 O   0  0
  1  2  1  0
  2  3  1  0
  2  4  2  0
  4  5  1  0
  6  5  1  6
  6  7  1  0
  7  8  1  0
  8  9  1  0
  8 10  1  0
  8 11  1  0
 11 12  1  1
 13 12  1  6
 13 14  1  0
 14 15  2  0
 15 16  1  0
 16 17  2  0
 16 18  1  0
 18 19  1  0
 19 20  1  4
 19 21  1  0
 22 21  1  6
 22 15  1  0
 22 11  1  0
 22  6  1  0
 13 23  1  0
 23  6  1  0
 23 24  2  0
M  END
> <Smiles>
CC(C)=CC[C@@]12OC(C)(C)[C@@H]3C[C@@H](C=C4C(=O)CC(C)O[C@]431)C2=O

> <ID>
CHEMBL1958321

> <standard_value>
82430

> <IC50_uM>
82.43

> <Activity>
No

> <pIC50>
4.0839147

> <BCI>
0

$$$$

  SciTegic03012415362D

 40 45  0  0  1  0            999 V2000
    2.1934   -5.8718    0.0000 C   0  0
    2.7084   -4.4629    0.0000 C   0  0
    4.1861   -4.2050    0.0000 C   0  0
    1.7461   -3.3113    0.0000 C   0  0
    2.2614   -1.9017    0.0000 C   0  0
    1.2990   -0.7500    0.0000 C   0  0
    1.2990    0.7500    0.0000 C   0  0
    2.5981    1.5000    0.0000 O   0  0
    0.0000    1.5000    0.0000 C   0  0
   -1.2990    0.7500    0.0000 C   0  0
   -1.2990   -0.7500    0.0000 C   0  0
    0.0000   -1.5000    0.0000 C   0  0
    0.0000   -3.0000    0.0000 O   0  0
   -2.5981   -1.5000    0.0000 C   0  0
   -2.5981   -3.0000    0.0000 O   0  0
   -3.8971   -0.7500    0.0000 C   0  0
   -5.1962   -1.5000    0.0000 C   0  0
   -6.4952   -0.7500    0.0000 C   0  0  3  0  0  0
   -6.4952    0.7500    0.0000 C   0  0
   -7.7942    1.5000    0.0000 O   0  0
   -5.1962    1.5000    0.0000 C   0  0  3  0  0  0
   -6.7069    1.5943    0.0000 C   0  0
   -7.3898    2.9308    0.0000 C   0  0
   -8.8886    3.0086    0.0000 C   0  0
   -9.5711    4.3443    0.0000 C   0  0
   -9.7045    1.7499    0.0000 C   0  0
   -6.6281    1.4607    0.0000 O   0  0
   -5.8781    2.7597    0.0000 C   0  0
   -5.1962    1.5000    0.0000 C   0  0  2  0  0  0
   -6.4952    0.7500    0.0000 C   0  0  1  0  0  0
   -7.9738    0.4924    0.0000 C   0  0
   -8.4909   -0.9165    0.0000 N   0  0
   -9.9255   -1.3085    0.0000 C   0  0
   -9.9788   -2.8076    0.0000 C   0  0
  -11.2229   -3.6456    0.0000 O   0  0
   -8.5696   -3.3215    0.0000 C   0  0
   -8.1571   -4.7637    0.0000 O   0  0
   -7.6454   -2.1401    0.0000 C   0  0
   -3.8971    0.7500    0.0000 C   0  0  3  0  0  0
   -2.5981    1.5000    0.0000 O   0  0
  1  2  1  0
  2  3  1  0
  2  4  2  0
  4  5  1  0
  5  6  1  0
  6  7  2  0
  7  8  1  0
  7  9  1  0
  9 10  2  0
 10 11  1  0
 11 12  2  0
 12  6  1  0
 12 13  1  0
 11 14  1  0
 14 15  2  0
 14 16  1  0
 16 17  2  0
 18 17  1  1
 18 19  1  0
 19 20  2  0
 19 21  1  0
 21 22  1  4
 22 23  1  0
 23 24  2  0
 24 25  1  0
 24 26  1  0
 21 27  1  0
 27 28  1  0
 29 28  1  1
 29 30  1  0
 30 18  1  0
 30 31  1  6
 31 32  1  0
 32 33  1  0
 33 34  1  0
 34 35  2  0
 34 36  1  0
 36 37  2  0
 36 38  1  0
 38 32  1  0
 29 39  1  0
 39 16  1  0
 39 21  1  0
 39 40  1  1
 40 10  1  0
M  END
> <Smiles>
CC(C)=CCc1c(O)cc2c(c1O)C(=O)C1=C[C@H]3C(=O)C4(CC=C(C)C)OC[C@H]([C@H]3CN3CC(=O)C(=O)C3)[C@]14O2

> <ID>
CHEMBL2336122

> <standard_value>
83100

> <IC50_uM>
83.1

> <Activity>
No

> <pIC50>
4.080398976

> <BCI>
0

$$$$

  SciTegic03012415362D

 27 28  0  0  0  0            999 V2000
    3.8983   -0.7459    0.0000 C   0  0
    2.6003   -1.4977    0.0000 O   0  0
    1.2990   -0.7500    0.0000 C   0  0
    1.2990    0.7500    0.0000 C   0  0
    0.0000    1.5000    0.0000 C   0  0
   -0.0031    3.0008    0.0000 C   0  0
   -1.3039    3.7494    0.0000 C   0  0
   -1.3070    5.2502    0.0000 C   0  0
   -0.0093    6.0025    0.0000 O   0  0
   -2.6078    5.9988    0.0000 C   0  0
   -2.6109    7.4996    0.0000 C   0  0
   -1.3132    8.2519    0.0000 O   0  0
   -3.9118    8.2481    0.0000 C   0  0
   -3.9149    9.7490    0.0000 C   0  0
   -5.2157   10.4975    0.0000 C   0  0
   -5.2210   11.9975    0.0000 C   0  0
   -6.5226   12.7430    0.0000 C   0  0
   -7.8190   11.9885    0.0000 C   0  0
   -9.1207   12.7340    0.0000 Br  0  0
   -7.8138   10.4885    0.0000 C   0  0
   -9.1094    9.7310    0.0000 O   0  0
   -9.1021    8.2310    0.0000 C   0  0
   -6.5122    9.7430    0.0000 C   0  0
   -1.2990    0.7500    0.0000 C   0  0
   -1.2990   -0.7500    0.0000 C   0  0
    0.0000   -1.5000    0.0000 C   0  0
    0.0000   -3.0000    0.0000 Br  0  0
  1  2  1  0
  2  3  1  0
  3  4  2  0
  4  5  1  0
  5  6  1  0
  6  7  2  0
  7  8  1  0
  8  9  2  0
  8 10  1  0
 10 11  2  0
 11 12  1  0
 11 13  1  0
 13 14  2  0
 14 15  1  0
 15 16  2  0
 16 17  1  0
 17 18  2  0
 18 19  1  0
 18 20  1  0
 20 21  1  0
 21 22  1  0
 20 23  2  0
 23 15  1  0
  5 24  2  0
 24 25  1  0
 25 26  2  0
 26  3  1  0
 26 27  1  0
M  END
> <Smiles>
COc1cc(/C=C/C(=O)/C=C(O)/C=C/c2ccc(Br)c(OC)c2)ccc1Br

> <ID>
CHEMBL1669060

> <standard_value>
84800

> <IC50_uM>
84.8

> <Activity>
No

> <pIC50>
4.071604148

> <BCI>
0

$$$$

  SciTegic03012415362D

 28 31  0  0  0  0            999 V2000
   -3.9232   -1.7735    0.0000 O   0  0
   -5.0098   -2.8075    0.0000 C   0  0
   -4.6570   -4.2663    0.0000 N   0  0
   -3.2175   -4.6910    0.0000 C   0  0
   -2.8628   -6.1485    0.0000 C   0  0
   -1.4233   -6.5700    0.0000 C   0  0
   -0.3384   -5.5341    0.0000 C   0  0
    1.1012   -5.9552    0.0000 Cl  0  0
   -0.6928   -4.0817    0.0000 C   0  0
    0.3114   -2.9665    0.0000 C   0  0
    1.8032   -3.1233    0.0000 N   0  0
    2.4133   -1.7530    0.0000 N   0  0
    1.2990   -0.7500    0.0000 C   0  0
    1.2990    0.7500    0.0000 C   0  0
    2.5981    1.5000    0.0000 Cl  0  0
    0.0000    1.5000    0.0000 C   0  0
   -1.2990    0.7500    0.0000 C   0  0
   -1.2990   -0.7500    0.0000 C   0  0
    0.0000   -1.5000    0.0000 N   0  0
   -2.1327   -3.6551    0.0000 C   0  0
   -6.4493   -2.3828    0.0000 C   0  0
   -7.5343   -3.4186    0.0000 C   0  0
   -8.9738   -2.9970    0.0000 C   0  0
   -9.3285   -1.5396    0.0000 C   0  0
  -10.7680   -1.1180    0.0000 Cl  0  0
   -8.2436   -0.5037    0.0000 N   0  0
   -6.8041   -0.9253    0.0000 C   0  0
   -5.7192    0.1106    0.0000 Cl  0  0
  1  2  2  0
  2  3  1  0
  3  4  1  0
  4  5  2  0
  5  6  1  0
  6  7  2  0
  7  8  1  0
  7  9  1  0
  9 10  1  0
 10 11  2  0
 11 12  1  0
 12 13  2  0
 13 14  1  0
 14 15  1  0
 14 16  2  0
 16 17  1  0
 17 18  2  0
 18 19  1  0
 19 10  1  0
 19 13  1  0
  9 20  2  0
 20  4  1  0
  2 21  1  0
 21 22  2  0
 22 23  1  0
 23 24  2  0
 24 25  1  0
 24 26  1  0
 26 27  2  0
 27 21  1  0
 27 28  1  0
M  END
> <Smiles>
O=C(Nc1ccc(Cl)c(-c2nnc3c(Cl)cccn23)c1)c1ccc(Cl)nc1Cl

> <ID>
CHEMBL4637406

> <standard_value>
85200

> <IC50_uM>
85.2

> <Activity>
No

> <pIC50>
4.069560405

> <BCI>
0

$$$$

  SciTegic03012415362D

 30 32  0  0  0  0            999 V2000
    3.8983   -0.7459    0.0000 C   0  0
    2.6003   -1.4977    0.0000 O   0  0
    1.2990   -0.7500    0.0000 C   0  0
    1.2990    0.7500    0.0000 C   0  0
    0.0000    1.5000    0.0000 C   0  0
   -1.2990    0.7500    0.0000 C   0  0
   -2.6003    1.4977    0.0000 N   0  0
   -3.8990    0.7455    0.0000 C   0  0
   -3.8964   -0.7545    0.0000 O   0  0
   -5.2003    1.4932    0.0000 C   0  0
   -5.2004    2.9933    0.0000 C   0  0
   -6.4995    3.7432    0.0000 C   0  0
   -7.7985    2.9932    0.0000 C   0  0
   -7.7985    1.4932    0.0000 C   0  0
   -6.4994    0.7432    0.0000 C   0  0
   -6.5025   -0.7576    0.0000 N   0  0
   -7.8033   -1.5062    0.0000 C   0  0
   -7.8086   -3.0062    0.0000 C   0  0
   -9.1102   -3.7517    0.0000 C   0  0
  -10.4067   -2.9972    0.0000 C   0  0
  -10.4015   -1.4972    0.0000 C   0  0
  -11.6986   -0.7423    0.0000 C   0  0
  -13.0007   -1.4870    0.0000 F   0  0
  -11.6930    0.7577    0.0000 F   0  0
  -12.9947    0.0128    0.0000 F   0  0
   -9.0999   -0.7517    0.0000 C   0  0
   -1.2990   -0.7500    0.0000 C   0  0
    0.0000   -1.5000    0.0000 C   0  0
   -0.0031   -3.0008    0.0000 O   0  0
   -1.3032   -3.7490    0.0000 C   0  0
  1  2  1  0
  2  3  1  0
  3  4  2  0
  4  5  1  0
  5  6  2  0
  6  7  1  0
  7  8  1  0
  8  9  2  0
  8 10  1  0
 10 11  2  0
 11 12  1  0
 12 13  2  0
 13 14  1  0
 14 15  2  0
 15 10  1  0
 15 16  1  0
 16 17  1  0
 17 18  2  0
 18 19  1  0
 19 20  2  0
 20 21  1  0
 21 22  1  0
 22 23  1  0
 22 24  1  0
 22 25  1  0
 21 26  2  0
 26 17  1  0
  6 27  1  0
 27 28  2  0
 28  3  1  0
 28 29  1  0
 29 30  1  0
M  END
> <Smiles>
COc1ccc(NC(=O)c2ccccc2Nc2cccc(C(F)(F)F)c2)cc1OC

> <ID>
CHEMBL5090568

> <standard_value>
86240

> <IC50_uM>
86.24

> <Activity>
No

> <pIC50>
4.064291252

> <BCI>
0

$$$$

  SciTegic03012415362D

 29 30  0  0  1  0            999 V2000
    2.5981   -1.5000    0.0000 C   0  0
    1.2990   -0.7500    0.0000 C   0  0
    1.2990    0.7500    0.0000 C   0  0
    0.0000    1.5000    0.0000 C   0  0
   -1.2990    0.7500    0.0000 C   0  0
   -1.2990   -0.7500    0.0000 C   0  0
   -1.2636   -2.2496    0.0000 C   0  0
   -2.5801    0.0303    0.0000 C   0  0
    0.0000   -1.5000    0.0000 C   0  0  3  0  0  0
    0.0367   -0.0005    0.0000 O   0  0
    1.2999   -2.2084    0.0000 C   0  0
    1.3745   -3.7074    0.0000 C   0  0
    2.7094   -4.3932    0.0000 C   0  0
    3.9699   -3.5800    0.0000 C   0  0
    2.7840   -5.8922    0.0000 C   0  0
    4.1190   -6.5779    0.0000 C   0  0
    4.1935   -8.0769    0.0000 C   0  0
    5.5285   -8.7627    0.0000 C   0  0  2  0  0  0
    5.6025  -10.2609    0.0000 C   0  0
    5.4197   -7.2871    0.0000 C   0  0
    6.6802   -6.4741    0.0000 C   0  0
    8.0146   -7.1593    0.0000 C   0  0  1  0  0  0
    9.2770   -6.3476    0.0000 C   0  0  1  0  0  0
   10.6102   -7.0350    0.0000 C   0  0
    9.2061   -4.8484    0.0000 C   0  0
   10.4678   -4.0372    0.0000 O   0  0
    7.8729   -4.1610    0.0000 O   0  0
    8.0884   -8.6575    0.0000 O   0  0
    6.8278   -9.4705    0.0000 O   0  0
  1  2  2  0
  2  3  1  0
  3  4  1  0
  4  5  1  0
  5  6  1  0
  6  7  1  0
  6  8  1  0
  6  9  1  0
  9  2  1  0
  9 10  1  4
  9 11  1  0
 11 12  1  0
 12 13  1  0
 13 14  1  0
 13 15  2  0
 15 16  1  0
 16 17  1  0
 17 18  1  0
 18 19  1  1
 18 20  1  0
 20 21  1  0
 22 21  1  1
 22 23  1  0
 23 24  1  6
 23 25  1  0
 25 26  2  0
 25 27  1  0
 22 28  1  0
 28 29  1  0
 29 18  1  0
M  END
> <Smiles>
C=C1CCCC(C)(C)C1(O)CC/C(C)=C/CC[C@]1(C)CC[C@@H]([C@@H](C)C(=O)O)OO1

> <ID>
CHEMBL2419354

> <standard_value>
87000

> <IC50_uM>
87

> <Activity>
No

> <pIC50>
4.060480747

> <BCI>
0

$$$$

  SciTegic03012415362D

 16 15  0  0  0  0            999 V2000
    0.0007    0.0004    0.0000 C   0  0
    1.3000    0.7500    0.0000 C   0  0
    2.6000    0.0000    0.0000 C   0  0
    3.9000    0.7500    0.0000 C   0  0
    3.9000    2.2500    0.0000 O   0  0
    5.2000    0.0000    0.0000 O   0  0
    6.5000    0.7500    0.0000 C   0  0
    7.7999    0.0000    0.0000 O   0  0
    9.0999    0.7500    0.0000 P   0  0
    9.0999   -0.7500    0.0000 O   0  0
   10.3999    0.0000    0.0000 O   0  0
   11.6999    0.7500    0.0000 C   0  0
   12.9992    0.0004    0.0000 C   0  0
    9.0999    2.2507    0.0000 O   0  0
   10.3992    3.0020    0.0000 C   0  0
   10.3992    4.5020    0.0000 C   0  0
  1  2  1  0
  2  3  1  0
  3  4  1  0
  4  5  2  0
  4  6  1  0
  6  7  1  0
  7  8  1  0
  8  9  1  0
  9 10  2  0
  9 11  1  0
 11 12  1  0
 12 13  1  0
  9 14  1  0
 14 15  1  0
 15 16  1  0
M  END
> <Smiles>
CCCC(=O)OCOP(=O)(OCC)OCC

> <ID>
CHEMBL486366

> <standard_value>
89000

> <IC50_uM>
89

> <Activity>
No

> <pIC50>
4.050609993

> <BCI>
0

$$$$

  SciTegic03012415362D

 24 25  0  0  1  0            999 V2000
    3.8912   -5.2570    0.0000 C   0  0
    3.8933   -3.7570    0.0000 O   0  0
    2.5951   -3.0039    0.0000 C   0  0
    1.2948   -3.7516    0.0000 O   0  0
    2.5973   -1.5031    0.0000 C   0  0  2  0  0  0
    3.8976   -0.7553    0.0000 C   0  0
    1.2990   -0.7500    0.0000 C   0  0  1  0  0  0
    1.2990    0.7500    0.0000 C   0  0
    0.0000    1.5000    0.0000 C   0  0
   -1.2990    0.7500    0.0000 C   0  0  1  0  0  0
   -2.5793   -0.0316    0.0000 C   0  0
   -1.2626    2.2300    0.0000 C   0  0
    0.0368    2.9810    0.0000 C   0  0
    0.0371    4.4818    0.0000 C   0  0
   -1.2633    5.2295    0.0000 C   0  0
   -2.5610    4.4772    0.0000 C   0  0
   -1.2660    6.7295    0.0000 C   0  0
    0.0316    7.4819    0.0000 C   0  0
    1.3320    6.7342    0.0000 C   0  0
    1.3348    5.2342    0.0000 C   0  0
    1.3022    3.7346    0.0000 C   0  0
    2.6144    6.0169    0.0000 C   0  0
   -1.2990   -0.7500    0.0000 O   0  0
    0.0000   -1.5000    0.0000 O   0  0
  1  2  1  0
  2  3  1  0
  3  4  2  0
  3  5  1  0
  5  6  1  1
  5  7  1  0
  7  8  1  6
  8  9  1  0
  9 10  1  0
 10 11  1  1
 10 12  1  0
 12 13  1  0
 13 14  1  0
 14 15  2  0
 15 16  1  0
 15 17  1  0
 17 18  1  0
 18 19  1  0
 19 20  1  0
 20 14  1  0
 20 21  1  0
 20 22  1  0
 10 23  1  0
 23 24  1  0
 24  7  1  0
M  END
> <Smiles>
COC(=O)[C@H](C)[C@H]1CC[C@@](C)(CCC2=C(C)CCCC2(C)C)OO1

> <ID>
CHEMBL451159

> <standard_value>
91000

> <IC50_uM>
91

> <Activity>
No

> <pIC50>
4.040958608

> <BCI>
0

$$$$

  SciTegic03012415362D

 35 40  0  0  1  0            999 V2000
   -0.2478   -8.1014    0.0000 C   0  0
   -0.8612   -6.7326    0.0000 C   0  0
   -2.3534   -6.5798    0.0000 C   0  0
    0.0174   -5.5157    0.0000 C   0  0
   -0.5963   -4.1461    0.0000 C   0  0
    0.2851   -2.9666    0.0000 C   0  0  3  0  0  0
    1.7758   -3.1329    0.0000 O   0  0
    2.3947   -1.7666    0.0000 C   0  0
    1.2990   -0.7500    0.0000 C   0  0  2  0  0  0
    1.2990    0.7500    0.0000 C   0  0  1  0  0  0
    2.6003    1.4978    0.0000 C   0  0
    3.8990    0.7455    0.0000 O   0  0
    5.2003    1.4932    0.0000 C   0  0
    6.4990    0.7410    0.0000 C   0  0
    7.8007    1.4864    0.0000 C   0  0
    9.0971    0.7320    0.0000 C   0  0
    9.0919   -0.7680    0.0000 C   0  0
    7.7903   -1.5135    0.0000 C   0  0
    6.4939   -0.7591    0.0000 C   0  0
    0.0000    1.5000    0.0000 C   0  0  1  0  0  0
   -1.2990    0.7500    0.0000 C   0  0
   -1.2990   -0.7500    0.0000 C   0  0
   -2.5969   -1.5137    0.0000 C   0  0
   -3.8988   -0.7687    0.0000 O   0  0
   -2.5976   -3.0137    0.0000 C   0  0
   -3.8970   -3.7631    0.0000 C   0  0
   -5.1957   -3.0124    0.0000 O   0  0
   -3.8977   -5.2631    0.0000 C   0  0
   -2.5990   -6.0137    0.0000 C   0  0
   -1.2996   -5.2643    0.0000 C   0  0
   -1.2989   -3.7643    0.0000 C   0  0
    0.0005   -3.0149    0.0000 O   0  0
    0.0000   -1.5000    0.0000 C   0  0  2  0  0  0
   -1.2151   -0.4213    0.0000 C   0  0
   -2.7149   -0.3978    0.0000 O   0  0
  1  2  1  0
  2  3  1  0
  2  4  2  0
  4  5  1  0
  6  5  1  4
  6  7  1  0
  7  8  1  0
  9  8  1  1
  9 10  1  0
 10 11  1  6
 11 12  1  0
 12 13  1  0
 13 14  1  0
 14 15  2  0
 15 16  1  0
 16 17  2  0
 17 18  1  0
 18 19  2  0
 19 14  1  0
 10 20  1  0
 20 21  1  6
 21 22  2  0
 22 23  1  0
 23 24  2  0
 23 25  1  0
 25 26  2  0
 26 27  1  0
 26 28  1  0
 28 29  2  0
 29 30  1  0
 30 31  2  0
 31 25  1  0
 31 32  1  0
 33 32  1  6
 33 22  1  0
 33  9  1  0
 33  6  1  0
 20 34  1  0
 34  6  1  0
 34 35  2  0
M  END
> <Smiles>
CC(C)=CCC12OC[C@@H]3[C@@H](COCc4ccccc4)[C@@H](C=C4C(=O)c5c(O)cccc5O[C@]431)C2=O

> <ID>
CHEMBL2335657

> <standard_value>
93100

> <IC50_uM>
93.1

> <Activity>
No

> <pIC50>
4.031050319

> <BCI>
0

$$$$

  SciTegic03012415362D

 36 40  0  0  1  0            999 V2000
    5.1873   -7.5109    0.0000 C   0  0
    5.1894   -6.0109    0.0000 C   0  0
    3.8912   -5.2578    0.0000 C   0  0
    3.8933   -3.7570    0.0000 C   0  0
    2.5951   -3.0039    0.0000 N   0  0
    1.2925   -3.7494    0.0000 C   0  0
   -0.0048   -2.9949    0.0000 C   0  0
   -1.3074   -3.7403    0.0000 C   0  0
   -2.6041   -2.9862    0.0000 C   0  0
    2.5973   -1.5031    0.0000 C   0  0
    1.2990   -0.7500    0.0000 C   0  0  2  0  0  0
    1.2990    0.7500    0.0000 C   0  0  1  0  0  0
    0.7500   -0.7205    0.0000 C   0  0
   -0.7500   -0.7205    0.0000 O   0  0
   -1.2990    0.7500    0.0000 C   0  0  3  0  0  0
   -2.2585   -0.4225    0.0000 C   0  0
   -3.7435   -0.2048    0.0000 C   0  0
   -4.6752   -1.3814    0.0000 C   0  0
   -6.1593   -1.1639    0.0000 C   0  0
   -4.1220   -2.7757    0.0000 C   0  0
   -1.2990   -0.7500    0.0000 C   0  0
   -2.5981   -1.5000    0.0000 O   0  0
    0.0000   -1.5000    0.0000 C   0  0  2  0  0  0
    1.1367    0.4746    0.0000 C   0  0
   -0.7043    2.8783    0.0000 C   0  0
    0.0457    4.1773    0.0000 C   0  0
   -0.7043    5.4764    0.0000 O   0  0
    1.5457    4.1773    0.0000 C   0  0
    2.2957    5.4764    0.0000 C   0  0
    1.5457    6.7754    0.0000 O   0  0
    3.7957    5.4764    0.0000 C   0  0
    4.5457    4.1773    0.0000 C   0  0
    3.7957    2.8783    0.0000 C   0  0
    2.2957    2.8783    0.0000 C   0  0
    1.5457    1.5793    0.0000 O   0  0
    0.0000    1.5000    0.0000 C   0  0  1  0  0  0
  1  2  1  0
  2  3  1  0
  3  4  1  0
  4  5  1  0
  5  6  1  0
  6  7  1  0
  7  8  1  0
  8  9  1  0
  5 10  1  0
 11 10  1  1
 11 12  1  0
 12 13  1  6
 13 14  1  0
 14 15  1  0
 15 16  1  4
 16 17  1  0
 17 18  2  0
 18 19  1  0
 18 20  1  0
 15 21  1  0
 21 22  2  0
 21 23  1  0
 23 11  1  0
 23 24  1  1
 24 25  2  0
 25 26  1  0
 26 27  2  0
 26 28  1  0
 28 29  2  0
 29 30  1  0
 29 31  1  0
 31 32  2  0
 32 33  1  0
 33 34  2  0
 34 28  1  0
 34 35  1  0
 36 35  1  6
 36 25  1  0
 36 12  1  0
 36 15  1  0
M  END
> <Smiles>
CCCCN(CCCC)C[C@@H]1[C@H]2COC3(CC=C(C)C)C(=O)[C@@H]1C=C1C(=O)c4c(O)cccc4O[C@]123

> <ID>
CHEMBL2335653

> <standard_value>
94900

> <IC50_uM>
94.9

> <Activity>
No

> <pIC50>
4.022733788

> <BCI>
0

$$$$

  SciTegic03012415362D

 47 52  0  0  1  0            999 V2000
    0.6137   -8.3668    0.0000 C   0  0
   -0.8500   -8.0388    0.0000 C   0  0
   -1.2977   -6.6063    0.0000 C   0  0
   -0.2816   -5.5018    0.0000 C   0  0
   -0.7292   -4.0692    0.0000 C   0  0  1  0  0  0
   -2.1929   -3.7413    0.0000 C   0  0
    0.2851   -2.9666    0.0000 C   0  0  1  0  0  0
    1.7758   -3.1329    0.0000 C   0  0
    2.3947   -1.7666    0.0000 C   0  0
    1.2990   -0.7500    0.0000 C   0  0  1  0  0  0
    1.2990    0.7500    0.0000 C   0  0
    0.0000    1.5000    0.0000 C   0  0
   -1.2990    0.7500    0.0000 C   0  0
   -2.5981    1.5000    0.0000 O   0  0
   -1.2990   -0.7500    0.0000 C   0  0
    0.0000   -1.5000    0.0000 C   0  0  2  0  0  0
   -1.2212   -2.3711    0.0000 C   0  0
    0.0000    3.0000    0.0000 C   0  0  1  0  0  0
   -1.2991    2.2500    0.0000 C   0  0
   -1.2991    3.7500    0.0000 C   0  0
   -1.2991    5.2500    0.0000 C   0  0
    0.0000    6.0000    0.0000 C   0  0
    0.0000    7.5000    0.0000 O   0  0
    1.2990    5.2500    0.0000 C   0  0  1  0  0  0
    2.5980    6.0000    0.0000 C   0  0
    1.2990    3.7500    0.0000 C   0  0  2  0  0  0
    2.5981    3.0000    0.0000 C   0  0
    2.5981    1.5000    0.0000 C   0  0  1  0  0  0
    3.8994    0.7523    0.0000 O   0  0
    5.1981    1.5046    0.0000 C   0  0
    5.1954    3.0046    0.0000 C   0  0
    6.4986    0.7572    0.0000 O   0  0
   -1.8661   -9.1434    0.0000 C   0  0  2  0  0  0
   -3.3298   -8.8154    0.0000 C   0  0
   -1.4185  -10.5759    0.0000 C   0  0
    0.0452  -10.9039    0.0000 O   0  0
   -2.4346  -11.6804    0.0000 N   0  0
   -1.9870  -13.1130    0.0000 C   0  0
   -3.0010  -14.2184    0.0000 C   0  0
   -2.5507  -15.6492    0.0000 C   0  0
   -1.0864  -15.9747    0.0000 C   0  0
   -0.6361  -17.4055    0.0000 C   0  0
    0.8281  -17.7310    0.0000 C   0  0
    1.8421  -16.6256    0.0000 C   0  0
    1.3918  -15.1948    0.0000 C   0  0
   -0.0724  -14.8693    0.0000 C   0  0
   -0.5227  -13.4385    0.0000 N   0  0
  1  2  2  0
  2  3  1  0
  3  4  1  0
  4  5  1  0
  5  6  1  1
  5  7  1  0
  7  8  1  6
  8  9  1  0
 10  9  1  6
 10 11  1  0
 11 12  2  0
 12 13  1  0
 13 14  2  0
 13 15  1  0
 15 16  1  0
 16  7  1  0
 16 10  1  0
 16 17  1  6
 12 18  1  0
 18 19  1  6
 18 20  1  0
 20 21  1  0
 21 22  1  0
 22 23  2  0
 22 24  1  0
 24 25  1  1
 24 26  1  0
 26 18  1  0
 26 27  1  6
 27 28  1  0
 28 11  1  0
 28 29  1  1
 29 30  1  0
 30 31  1  0
 30 32  2  0
  2 33  1  0
 33 34  1  1
 33 35  1  0
 35 36  2  0
 35 37  1  0
 37 38  1  0
 38 39  2  0
 39 40  1  0
 40 41  2  0
 41 42  1  0
 42 43  2  0
 43 44  1  0
 44 45  2  0
 45 46  1  0
 46 41  1  0
 46 47  2  0
 47 38  1  0
M  END
> <Smiles>
C=C(CC[C@@H](C)[C@H]1CC[C@H]2C3=C(C(=O)C[C@]12C)[C@@]1(C)CCC(=O)[C@@H](C)[C@@H]1C[C@H]3OC(C)=O)[C@H](C)C(=O)Nc1ccc2ccccc2n1

> <ID>
CHEMBL4854932

> <standard_value>
95800

> <IC50_uM>
95.8

> <Activity>
No

> <pIC50>
4.018634491

> <BCI>
0

$$$$

  SciTegic03012415362D

 12 12  0  0  0  0            999 V2000
    2.8373    0.5169    0.0000 C   0  0
    2.2267   -0.8531    0.0000 C   0  0
    3.1082   -2.0667    0.0000 C   0  0
    0.7500   -1.0323    0.0000 C   0  0  3  0  0  0
    0.1183   -2.3928    0.0000 O   0  0
    1.2135    0.3943    0.0000 O   0  0
    0.0000    1.2760    0.0000 C   0  0
    0.0000    2.7760    0.0000 O   0  0
   -1.2135    0.3943    0.0000 C   0  0
   -0.7500   -1.0323    0.0000 C   0  0
   -1.6332   -2.2426    0.0000 O   0  0
   -3.1247   -2.0836    0.0000 C   0  0
  1  2  2  0
  2  3  1  0
  2  4  1  0
  4  5  1  4
  4  6  1  0
  6  7  1  0
  7  8  2  0
  7  9  1  0
  9 10  2  0
 10  4  1  0
 10 11  1  0
 11 12  1  0
M  END
> <Smiles>
C=C(C)C1(O)OC(=O)C=C1OC

> <ID>
CHEMBL495778

> <standard_value>
20000

> <IC50_uM>
20

> <Activity>
No

> <pIC50>
4.698970004

> <BCI>
0

$$$$

  SciTegic03012415362D

 31 35  0  0  0  0            999 V2000
    5.5454  -12.2194    0.0000 N   0  0
    4.7954  -10.9203    0.0000 C   0  0
    4.0450   -9.6205    0.0000 C   0  0
    2.5450   -9.6205    0.0000 C   0  0
    1.7946  -10.9201    0.0000 C   0  0
    2.5424  -12.2205    0.0000 C   0  0
    1.7903  -13.5183    0.0000 C   0  0
    0.2903  -13.5159    0.0000 C   0  0
   -0.4576  -12.2156    0.0000 C   0  0
    0.2946  -10.9178    0.0000 C   0  0
    1.7951   -8.3214    0.0000 N   0  0
    2.5451   -7.0223    0.0000 C   0  0
    1.7974   -5.7210    0.0000 S   0  0
    2.5497   -4.4224    0.0000 C   0  0
    1.8032   -3.1233    0.0000 C   0  0
    2.4133   -1.7530    0.0000 N   0  0
    1.2990   -0.7500    0.0000 C   0  0
    1.2990    0.7500    0.0000 C   0  0
    0.0000    1.5000    0.0000 C   0  0
   -1.2990    0.7500    0.0000 C   0  0
   -1.2990   -0.7500    0.0000 C   0  0
    0.0000   -1.5000    0.0000 C   0  0
    0.3114   -2.9665    0.0000 N   0  0
    4.0452   -7.0225    0.0000 N   0  0
    4.7951   -8.3215    0.0000 C   0  0
    6.2958   -8.3216    0.0000 N   0  0
    7.0481   -7.0238    0.0000 C   0  0
    8.5481   -7.0262    0.0000 C   0  0
    9.2960   -8.3265    0.0000 N   0  0
    8.5438   -9.6243    0.0000 C   0  0
    7.0438   -9.6219    0.0000 C   0  0
  1  2  3  0
  2  3  1  0
  3  4  2  0
  4  5  1  0
  5  6  2  0
  6  7  1  0
  7  8  2  0
  8  9  1  0
  9 10  2  0
 10  5  1  0
  4 11  1  0
 11 12  2  0
 12 13  1  0
 13 14  1  0
 14 15  1  0
 15 16  2  0
 16 17  1  0
 17 18  2  0
 18 19  1  0
 19 20  2  0
 20 21  1  0
 21 22  2  0
 22 17  1  0
 22 23  1  0
 23 15  1  0
 12 24  1  0
 24 25  2  0
 25  3  1  0
 25 26  1  0
 26 27  1  0
 27 28  1  0
 28 29  1  0
 29 30  1  0
 30 31  1  0
 31 26  1  0
M  END
> <Smiles>
N#Cc1c(-c2ccccc2)nc(SCc2nc3ccccc3[nH]2)nc1N1CCNCC1

> <ID>
CHEMBL1164763

> <standard_value>
20000

> <IC50_uM>
20

> <Activity>
No

> <pIC50>
4.698970004

> <BCI>
0

$$$$

  SciTegic03012415362D

 46 48  0  0  1  0            999 V2000
    4.5992    5.8995    0.0000 C   0  0
    3.4865    4.8936    0.0000 C   0  0
    2.0591    5.3547    0.0000 C   0  0
    3.8005    3.4260    0.0000 C   0  0
    2.6807    2.4138    0.0000 C   0  0  2  0  0  0
    1.4672    3.2954    0.0000 N   0  0
    0.0000    3.6073    0.0000 C   0  0
    0.0000    5.1073    0.0000 O   0  0
   -1.4672    3.2954    0.0000 C   0  0  2  0  0  0
   -2.0785    4.6756    0.0000 C   0  0
   -1.1947    5.8886    0.0000 C   0  0
   -1.8001    7.2610    0.0000 C   0  0
   -0.9143    8.4715    0.0000 C   0  0
    0.5770    8.3097    0.0000 C   0  0
    1.1824    6.9373    0.0000 C   0  0
    0.2967    5.7268    0.0000 C   0  0
   -2.6808    2.4137    0.0000 N   0  0
   -3.4308    1.1147    0.0000 C   0  0
   -4.8573    1.5782    0.0000 O   0  0
   -3.5875   -0.3771    0.0000 C   0  0  2  0  0  0
   -5.0890   -0.5319    0.0000 C   0  0
   -5.9695    0.6835    0.0000 C   0  0
   -7.4616    0.5296    0.0000 C   0  0
   -5.3571    2.0528    0.0000 C   0  0
   -3.1240   -1.8037    0.0000 N   0  0
   -2.1203   -2.9184    0.0000 C   0  0
   -3.0020   -4.1319    0.0000 O   0  0
   -0.7500   -3.5285    0.0000 C   0  0  1  0  0  0
   -1.0667   -5.0043    0.0000 C   0  0
   -2.4947   -5.4662    0.0000 C   0  0
   -2.8095   -6.9328    0.0000 C   0  0
   -3.6078   -4.4606    0.0000 C   0  0
    0.7500   -3.5285    0.0000 N   0  0
    2.1203   -2.9184    0.0000 C   0  0
    3.0020   -4.1319    0.0000 O   0  0
    3.1240   -1.8036    0.0000 C   0  0  2  0  0  0
    4.4297   -2.5609    0.0000 C   0  0
    4.4277   -4.0618    0.0000 C   0  0
    5.7242   -4.8162    0.0000 C   0  0
    5.7191   -6.3162    0.0000 C   0  0
    4.4175   -7.0618    0.0000 C   0  0
    3.1210   -6.3074    0.0000 C   0  0
    3.1261   -4.8075    0.0000 C   0  0
    3.5875   -0.3771    0.0000 N   0  0
    3.4307    1.1147    0.0000 C   0  0
    4.8573    1.5782    0.0000 O   0  0
  1  2  1  0
  2  3  1  0
  2  4  1  0
  5  4  1  1
  5  6  1  0
  6  7  1  0
  7  8  2  0
  7  9  1  0
  9 10  1  1
 10 11  1  0
 11 12  2  0
 12 13  1  0
 13 14  2  0
 14 15  1  0
 15 16  2  0
 16 11  1  0
  9 17  1  0
 17 18  1  0
 18 19  2  0
 18 20  1  0
 20 21  1  1
 21 22  1  0
 22 23  1  0
 22 24  1  0
 20 25  1  0
 25 26  1  0
 26 27  2  0
 26 28  1  0
 28 29  1  6
 29 30  1  0
 30 31  1  0
 30 32  1  0
 28 33  1  0
 33 34  1  0
 34 35  2  0
 34 36  1  0
 36 37  1  1
 37 38  1  0
 38 39  2  0
 39 40  1  0
 40 41  2  0
 41 42  1  0
 42 43  2  0
 43 38  1  0
 36 44  1  0
 44 45  1  0
 45  5  1  0
 45 46  2  0
M  END
> <Smiles>
CC(C)C[C@@H]1NC(=O)[C@H](Cc2ccccc2)NC(=O)[C@H](CC(C)C)NC(=O)[C@@H](CC(C)C)NC(=O)[C@H](Cc2ccccc2)NC1=O

> <ID>
CHEMBL606259

> <standard_value>
20500

> <IC50_uM>
20.5

> <Activity>
No

> <pIC50>
4.688246139

> <BCI>
0

$$$$

  SciTegic03012415362D

 31 35  0  0  0  0            999 V2000
   -0.7605   -8.0519    0.0000 C   0  0
   -1.2259   -6.6259    0.0000 O   0  0
   -0.2239   -5.5086    0.0000 C   0  0
    1.2439   -5.8181    0.0000 O   0  0
   -0.6895   -4.0819    0.0000 C   0  0  3  0  0  0
    0.3114   -2.9665    0.0000 C   0  0
    1.8032   -3.1233    0.0000 C   0  0
    2.4133   -1.7530    0.0000 N   0  0
    1.2990   -0.7500    0.0000 C   0  0
    1.2990    0.7500    0.0000 C   0  0
    0.0000    1.5000    0.0000 C   0  0
   -1.2990    0.7500    0.0000 C   0  0
   -1.2990   -0.7500    0.0000 C   0  0
    0.0000   -1.5000    0.0000 C   0  0
   -1.2394   -2.7256    0.0000 C   0  0
   -0.7255   -1.8677    0.0000 O   0  0
   -2.7309   -2.8846    0.0000 C   0  0
   -3.7374   -1.7747    0.0000 O   0  0
   -5.2037   -2.0909    0.0000 C   0  0
   -3.0406   -4.3523    0.0000 C   0  0  3  0  0  0
   -4.4107   -4.9647    0.0000 C   0  0
   -4.5812   -6.4431    0.0000 C   0  0
   -6.0557   -6.7180    0.0000 N   0  0
   -6.7723   -5.4012    0.0000 C   0  0
   -8.2312   -5.0526    0.0000 C   0  0
   -8.6588   -3.6148    0.0000 C   0  0
   -7.6275   -2.5256    0.0000 C   0  0
   -6.1685   -2.8742    0.0000 C   0  0
   -5.7409   -4.3120    0.0000 C   0  0
   -1.7405   -5.1003    0.0000 C   0  0
   -1.6170   -6.0927    0.0000 O   0  0
  1  2  1  0
  2  3  1  0
  3  4  2  0
  5  3  1  4
  5  6  1  0
  6  7  2  0
  7  8  1  0
  8  9  1  0
  9 10  2  0
 10 11  1  0
 11 12  2  0
 12 13  1  0
 13 14  2  0
 14  6  1  0
 14  9  1  0
  5 15  1  0
 15 16  2  0
 15 17  1  0
 17 18  1  0
 18 19  1  0
 17 20  2  0
 20 21  1  0
 21 22  2  0
 22 23  1  0
 23 24  1  0
 24 25  2  0
 25 26  1  0
 26 27  2  0
 27 28  1  0
 28 29  2  0
 29 21  1  0
 29 24  1  0
 20 30  1  4
 30  5  1  0
 30 31  2  0
M  END
> <Smiles>
COC(=O)C1(c2c[nH]c3ccccc23)C(=O)C(OC)=C(c2c[nH]c3ccccc23)C1=O

> <ID>
CHEMBL467403

> <standard_value>
20700

> <IC50_uM>
20.7

> <Activity>
No

> <pIC50>
4.684029655

> <BCI>
0

$$$$

  SciTegic03012415362D

 20 22  0  0  1  0            999 V2000
    2.8773   -2.7856    0.0000 C   0  0
    1.7273   -1.8225    0.0000 O   0  0
    1.9857   -0.3441    0.0000 C   0  0
    0.8300    0.6200    0.0000 C   0  0  1  0  0  0
    1.2700    1.6000    0.0000 C   0  0
    2.7110    2.0164    0.0000 O   0  0
    0.0200    2.4300    0.0000 C   0  0
   -1.1200    1.5100    0.0000 C   0  0  1  0  0  0
   -1.2400   -1.3400    0.0000 C   0  0  2  0  0  0
    0.0300   -1.8600    0.0000 C   0  0
    1.2200   -1.4900    0.0000 C   0  0
    0.7100   -0.3500    0.0000 C   0  0  2  0  0  0
    1.7707    0.7177    0.0000 C   0  0
    2.7374    0.4621    0.0000 O   0  0
    1.3782    2.1655    0.0000 O   0  0
   -0.6300    0.1000    0.0000 C   0  0  2  0  0  0
   -2.0600   -0.6700    0.0000 C   0  0
   -2.4800   -2.1500    0.0000 C   0  0
   -1.9036   -3.5348    0.0000 C   0  0
   -3.9737   -2.0122    0.0000 C   0  0
  1  2  1  0
  2  3  1  0
  4  3  1  6
  4  5  1  0
  5  6  2  0
  5  7  1  0
  8  7  1  6
  8  9  1  0
  9 10  1  6
 10 11  1  0
 11 12  1  0
 12 13  1  1
 13 14  2  0
 13 15  1  0
 12 16  1  0
 16  4  1  0
 16  8  1  0
 16 17  1  6
 17 18  1  0
 18  9  1  0
 18 19  1  0
 18 20  1  0
M  END
> <Smiles>
COC[C@H]1C(=O)C[C@H]2[C@@H]3CC[C@H](C(=O)O)[C@]12CC3(C)C

> <ID>
CHEMBL511399

> <standard_value>
21400

> <IC50_uM>
21.4

> <Activity>
No

> <pIC50>
4.669586227

> <BCI>
0

$$$$

  SciTegic03012415362D

 24 27  0  0  0  0            999 V2000
   -6.9281    7.5217    0.0000 C   0  0
   -5.7671    6.5720    0.0000 N   0  0
   -4.3629    7.1020    0.0000 C   0  0
   -3.2013    6.1517    0.0000 C   0  0
   -1.7972    6.6795    0.0000 C   0  0
   -0.6381    5.7273    0.0000 C   0  0
   -0.8832    4.2525    0.0000 C   0  0
    0.2015    3.2154    0.0000 C   0  0
    1.6774    3.4832    0.0000 N   0  0
    2.3882    2.1623    0.0000 C   0  0
    3.8408    1.7385    0.0000 C   0  0
    4.2182    0.2867    0.0000 C   0  0
    5.6642   -0.1123    0.0000 F   0  0
    3.1497   -0.7660    0.0000 C   0  0
    1.6852   -0.3846    0.0000 C   0  0
    1.3514    1.0778    0.0000 C   0  0
    0.0000    1.7286    0.0000 C   0  0
   -1.3515    1.0777    0.0000 C   0  0
   -1.6852   -0.3847    0.0000 C   0  0
   -0.7500   -1.5574    0.0000 N   0  0
    0.7500   -1.5574    0.0000 C   0  0
    1.4008   -2.9088    0.0000 O   0  0
   -2.2872    3.7198    0.0000 C   0  0
   -3.4463    4.6719    0.0000 C   0  0
  1  2  1  0
  2  3  1  0
  3  4  1  0
  4  5  2  0
  5  6  1  0
  6  7  2  0
  7  8  1  0
  8  9  1  0
  9 10  1  0
 10 11  2  0
 11 12  1  0
 12 13  1  0
 12 14  2  0
 14 15  1  0
 15 16  2  0
 16 10  1  0
 16 17  1  0
 17  8  2  0
 17 18  1  0
 18 19  1  0
 19 20  1  0
 20 21  1  0
 21 15  1  0
 21 22  2  0
  7 23  1  0
 23 24  2  0
 24  4  1  0
M  END
> <Smiles>
CNCc1ccc(-c2[nH]c3cc(F)cc4c3c2CCNC4=O)cc1

> <ID>
CHEMBL1173055

> <standard_value>
22242.75

> <IC50_uM>
22.24275

> <Activity>
No

> <pIC50>
4.652811519

> <BCI>
0

$$$$

  SciTegic03012415362D

 17 17  0  0  0  0            999 V2000
    3.8919   -4.7570    0.0000 O   0  0
    3.8933   -3.7570    0.0000 P   0  0
    5.1937   -3.0093    0.0000 O   0  0
    5.1912   -4.5090    0.0000 O   0  0
    2.5951   -3.0039    0.0000 C   0  0
    1.2948   -3.7516    0.0000 O   0  0
    2.5973   -1.5031    0.0000 C   0  0
    1.2990   -0.7500    0.0000 C   0  0
    1.2990    0.7500    0.0000 C   0  0
    0.0000    1.5000    0.0000 C   0  0
   -1.2990    0.7500    0.0000 C   0  0
   -1.2990   -0.7500    0.0000 N   0  0
    0.0000   -1.5000    0.0000 C   0  0
    2.5903   -4.5339    0.0000 P   0  0
    1.2893   -5.2805    0.0000 O   0  0
    2.5862   -6.0339    0.0000 O   0  0
    3.4549   -5.0363    0.0000 O   0  0
  1  2  2  0
  2  3  1  0
  2  4  1  0
  2  5  1  0
  5  6  1  0
  5  7  1  0
  7  8  1  0
  8  9  2  0
  9 10  1  0
 10 11  2  0
 11 12  1  0
 12 13  2  0
 13  8  1  0
  5 14  1  0
 14 15  2  0
 14 16  1  0
 14 17  1  0
M  END
> <Smiles>
O=P(O)(O)C(O)(Cc1cccnc1)P(=O)(O)O

> <ID>
CHEMBL923

> <standard_value>
23300

> <IC50_uM>
23.3

> <Activity>
No

> <pIC50>
4.632644079

> <BCI>
0

$$$$

  SciTegic03012415362D

 20 20  0  0  0  0            999 V2000
    3.8912   -5.2570    0.0000 C   0  0
    3.8933   -3.7570    0.0000 C   0  0
    2.5951   -3.0039    0.0000 C   0  0
    2.5973   -1.5031    0.0000 C   0  0
    1.2990   -0.7500    0.0000 C   0  0
    1.2990    0.7500    0.0000 C   0  0
    0.0000    1.5000    0.0000 C   0  0
   -1.2990    0.7500    0.0000 C   0  0
   -1.2990   -0.7500    0.0000 N   0  3
   -2.5972   -1.5031    0.0000 C   0  0
   -2.5951   -3.0039    0.0000 C   0  0  3  0  0  0
   -3.8933   -3.7570    0.0000 P   0  0
   -3.8912   -5.2570    0.0000 O   0  0
   -5.1937   -3.0093    0.0000 O   0  5
   -5.1912   -4.5091    0.0000 O   0  0
   -1.2925   -3.7494    0.0000 P   0  0
    0.0042   -2.9953    0.0000 O   0  0
    0.0090   -4.4951    0.0000 O   0  0
   -1.2873   -5.2494    0.0000 O   0  0
    0.0000   -1.5000    0.0000 C   0  0
  1  2  1  0
  2  3  1  0
  3  4  1  0
  4  5  1  0
  5  6  2  0
  6  7  1  0
  7  8  2  0
  8  9  1  0
  9 10  1  0
 11 10  1  4
 11 12  1  0
 12 13  2  0
 12 14  1  0
 12 15  1  0
 11 16  1  0
 16 17  2  0
 16 18  1  0
 16 19  1  0
  9 20  2  0
 20  5  1  0
M  CHG  2   9   1  14  -1
M  END
> <Smiles>
CCCCc1ccc[n+](CC(P(=O)([O-])O)P(=O)(O)O)c1

> <ID>
CHEMBL383957

> <standard_value>
24100

> <IC50_uM>
24.1

> <Activity>
No

> <pIC50>
4.617982957

> <BCI>
0

$$$$

  SciTegic03012415362D

 25 28  0  0  0  0            999 V2000
    7.3132   -3.4919    0.0000 C   0  0
    5.8367   -3.7562    0.0000 C   0  0
    4.8683   -2.6096    0.0000 C   0  0
    5.3772   -1.1986    0.0000 O   0  0
    3.3910   -2.8741    0.0000 C   0  0  3  0  0  0
    2.8820   -4.2851    0.0000 C   0  0
    2.4133   -1.7530    0.0000 C   0  0  3  0  0  0
    2.8541   -0.3192    0.0000 O   0  0
    1.2990   -0.7500    0.0000 C   0  0
    1.2990    0.7500    0.0000 C   0  0
    0.0000    1.5000    0.0000 C   0  0
   -1.2990    0.7500    0.0000 C   0  0
   -1.2990   -0.7500    0.0000 C   0  0
    0.0000   -1.5000    0.0000 C   0  0
    0.3114   -2.9665    0.0000 N   0  0
    1.8032   -3.1233    0.0000 C   0  0
    2.4135   -4.4923    0.0000 N   0  0
    1.5318   -5.7059    0.0000 C   0  0
    2.1419   -7.0762    0.0000 C   0  0
    1.2602   -8.2897    0.0000 C   0  0
   -0.2316   -8.1329    0.0000 C   0  0
   -0.8417   -6.7626    0.0000 C   0  0
    0.0400   -5.5491    0.0000 C   0  0
   -0.5701   -4.1788    0.0000 C   0  0
   -2.0618   -4.0217    0.0000 O   0  0
  1  2  1  0
  2  3  1  0
  3  4  2  0
  3  5  1  0
  5  6  1  4
  5  7  1  0
  7  8  1  4
  7  9  1  0
  9 10  2  0
 10 11  1  0
 11 12  2  0
 12 13  1  0
 13 14  2  0
 14  9  1  0
 14 15  1  0
 15 16  1  0
 16  7  1  0
 16 17  2  0
 17 18  1  0
 18 19  2  0
 19 20  1  0
 20 21  2  0
 21 22  1  0
 22 23  2  0
 23 18  1  0
 23 24  1  0
 24 15  1  0
 24 25  2  0
M  END
> <Smiles>
CCC(=O)C(C)C1(O)c2ccccc2-n2c1nc1ccccc1c2=O

> <ID>
CHEMBL460270

> <standard_value>
24800

> <IC50_uM>
24.8

> <Activity>
No

> <pIC50>
4.605548319

> <BCI>
0

$$$$

  SciTegic03012415362D

 27 30  0  0  0  0            999 V2000
    5.5505   -4.4276    0.0000 N   0  0
    4.0505   -4.4250    0.0000 C   0  0
    2.5497   -4.4224    0.0000 C   0  0
    1.8032   -3.1233    0.0000 C   0  0
    0.3121   -2.9603    0.0000 N   0  0
    0.0068   -1.4925    0.0000 C   0  0
   -1.2891   -0.7371    0.0000 C   0  0
   -1.2829    0.7629    0.0000 C   0  0
    0.0192    1.5075    0.0000 C   0  0
    1.3152    0.7521    0.0000 C   0  0
    1.3089   -0.7479    0.0000 C   0  0
    2.4190   -1.7555    0.0000 S   0  0
    1.7974   -5.7210    0.0000 C   0  0
    2.5428   -7.0227    0.0000 C   0  0
    1.7883   -8.3192    0.0000 C   0  0
    0.2883   -8.3139    0.0000 N   0  0
   -0.4572   -7.0123    0.0000 C   0  0
   -1.9580   -7.0040    0.0000 N   0  0
   -2.7020   -5.7006    0.0000 C   0  0
   -4.2028   -5.6923    0.0000 C   0  0
   -4.9469   -4.3889    0.0000 C   0  0
   -6.4469   -4.3784    0.0000 C   0  0
   -7.1878   -3.0742    0.0000 C   0  0
   -6.4288   -1.7804    0.0000 C   0  0
   -4.9289   -1.7908    0.0000 N   0  0
   -4.1879   -3.0950    0.0000 C   0  0
    0.2973   -5.7159    0.0000 N   0  0
  1  2  3  0
  2  3  1  0
  3  4  2  0
  4  5  1  0
  5  6  1  0
  6  7  2  0
  7  8  1  0
  8  9  2  0
  9 10  1  0
 10 11  2  0
 11  6  1  0
 11 12  1  0
 12  4  1  0
  3 13  1  0
 13 14  2  0
 14 15  1  0
 15 16  2  0
 16 17  1  0
 17 18  1  0
 18 19  1  0
 19 20  1  0
 20 21  1  0
 21 22  2  0
 22 23  1  0
 23 24  2  0
 24 25  1  0
 25 26  2  0
 26 21  1  0
 17 27  2  0
 27 13  1  0
M  END
> <Smiles>
N#C/C(=C1/Nc2ccccc2S1)c1ccnc(NCCc2cccnc2)n1

> <ID>
CHEMBL191384

> <standard_value>
24958.11

> <IC50_uM>
24.95811

> <Activity>
No

> <pIC50>
4.602788306

> <BCI>
0

$$$$

  SciTegic03012415362D

 35 39  0  0  0  0            999 V2000
    2.5528   -7.0201    0.0000 C   0  0
    1.8028   -5.7210    0.0000 C   0  0
    2.5524   -4.4208    0.0000 C   0  0
    4.0524   -4.4203    0.0000 C   0  0
    3.3030   -5.7195    0.0000 C   0  0
    1.8032   -3.1233    0.0000 C   0  0
    2.4133   -1.7530    0.0000 N   0  0
    1.2990   -0.7500    0.0000 C   0  0
    1.2990    0.7500    0.0000 C   0  0
    0.0000    1.5000    0.0000 C   0  0
   -1.2990    0.7500    0.0000 C   0  0
   -1.2990   -0.7500    0.0000 C   0  0
    0.0000   -1.5000    0.0000 C   0  0
    0.3114   -2.9665    0.0000 C   0  0  3  0  0  0
   -0.6928   -4.0817    0.0000 C   0  0
   -2.1743   -3.8808    0.0000 C   0  0
   -2.7454   -2.4929    0.0000 O   0  0
   -4.2319   -2.2926    0.0000 C   0  0
   -3.0913   -5.0679    0.0000 C   0  0
   -4.5779   -4.8673    0.0000 O   0  0
   -2.5218   -6.4556    0.0000 C   0  0  3  0  0  0
   -3.4393   -7.6432    0.0000 C   0  0
   -3.0026   -9.0649    0.0000 C   0  0
   -4.2403   -9.9123    0.0000 N   0  0
   -5.4279   -8.9973    0.0000 C   0  0
   -6.9033   -9.2679    0.0000 C   0  0
   -7.8754   -8.1255    0.0000 C   0  0
   -7.3721   -6.7125    0.0000 C   0  0
   -5.8967   -6.4418    0.0000 C   0  0
   -4.9246   -7.5842    0.0000 C   0  0
   -1.0353   -6.6562    0.0000 C   0  0
   -0.4626   -8.0435    0.0000 O   0  0
    1.0242   -8.2420    0.0000 C   0  0
   -0.1183   -5.4691    0.0000 C   0  0
    0.8729   -5.6013    0.0000 O   0  0
  1  2  2  0
  2  3  1  0
  3  4  1  0
  3  5  1  0
  3  6  1  0
  6  7  1  0
  7  8  1  0
  8  9  2  0
  9 10  1  0
 10 11  2  0
 11 12  1  0
 12 13  2  0
 13  8  1  0
 14 13  1  4
 14  6  2  0
 14 15  1  0
 15 16  2  0
 16 17  1  0
 17 18  1  0
 16 19  1  0
 19 20  2  0
 21 19  1  4
 21 22  1  0
 22 23  2  0
 23 24  1  0
 24 25  1  0
 25 26  2  0
 26 27  1  0
 27 28  2  0
 28 29  1  0
 29 30  2  0
 30 22  1  0
 30 25  1  0
 21 31  2  0
 31 32  1  0
 32 33  1  0
 31 34  1  0
 34 15  1  0
 34 35  2  0
M  END
> <Smiles>
C=CC(C)(C)c1[nH]c2ccccc2c1C1=C(OC)C(=O)C(c2c[nH]c3ccccc23)=C(OC)C1=O

> <ID>
CHEMBL467829

> <standard_value>
25700

> <IC50_uM>
25.7

> <Activity>
No

> <pIC50>
4.590066877

> <BCI>
0

$$$$

  SciTegic03012415362D

 25 28  0  0  1  0            999 V2000
    3.8978   -2.2504    0.0000 C   0  5
    2.5988   -1.5004    0.0000 N   0  3
    1.2990   -0.7500    0.0000 C   0  0  2  0  0  0
    1.2990    0.7500    0.0000 C   0  0
    2.5981    1.5000    0.0000 C   0  0
    4.1461    1.2403    0.0000 C   0  0
    4.7856   -0.1165    0.0000 O   0  0
    4.8961    2.5393    0.0000 N   0  0
    3.8971    3.7500    0.0000 C   0  0
    3.8971    5.2500    0.0000 C   0  0
    2.5980    6.0000    0.0000 C   0  0
    1.2990    5.2500    0.0000 C   0  0
    1.2990    3.7500    0.0000 C   0  0
    2.5981    3.0000    0.0000 C   0  0
    0.0000    3.0000    0.0000 C   0  0
    0.0354    4.4996    0.0000 C   0  0
   -1.2811    2.2197    0.0000 C   0  0
    0.0000    1.5000    0.0000 C   0  0  1  0  0  0
   -1.2990    0.7500    0.0000 C   0  0
   -1.2990   -0.7500    0.0000 C   0  0  1  0  0  0
   -2.5981   -1.5000    0.0000 Cl  0  0
    0.0000   -1.5000    0.0000 C   0  0  1  0  0  0
    1.3170   -2.2179    0.0000 C   0  0
   -1.2999   -2.2084    0.0000 C   0  0
   -1.3744   -3.7066    0.0000 C   0  0
  1  2  3  0
  3  2  1  1
  3  4  1  0
  4  5  2  0
  5  6  1  0
  6  7  2  0
  6  8  1  0
  8  9  1  0
  9 10  2  0
 10 11  1  0
 11 12  2  0
 12 13  1  0
 13 14  2  0
 14  9  1  0
 14  5  1  0
 13 15  1  0
 15 16  1  0
 15 17  1  0
 15 18  1  0
 18  4  1  0
 18 19  1  6
 19 20  1  0
 20 21  1  6
 20 22  1  0
 22  3  1  0
 22 23  1  6
 22 24  1  0
 24 25  2  0
M  CHG  2   1  -1   2   1
M  END
> <Smiles>
[C-]#[N+][C@@H]1C2=C3C(=O)Nc4cccc(c43)C(C)(C)[C@H]2C[C@@H](Cl)[C@]1(C)C=C

> <ID>
CHEMBL2071360

> <standard_value>
26000

> <IC50_uM>
26

> <Activity>
No

> <pIC50>
4.585026652

> <BCI>
0

$$$$

  SciTegic03012415362D

 23 24  0  0  0  0            999 V2000
    3.8919   -4.7570    0.0000 O   0  0
    3.8933   -3.7570    0.0000 P   0  0
    5.1937   -3.0093    0.0000 O   0  5
    5.1912   -4.5090    0.0000 O   0  0
    2.5951   -3.0039    0.0000 C   0  0  3  0  0  0
    1.2948   -3.7516    0.0000 O   0  0
    2.5973   -1.5031    0.0000 C   0  0
    1.2990   -0.7500    0.0000 N   0  3
    1.2990    0.7500    0.0000 C   0  0
    0.0000    1.5000    0.0000 C   0  0
   -1.2990    0.7500    0.0000 C   0  0
   -1.2990   -0.7500    0.0000 C   0  0
   -2.5987   -1.5004    0.0000 C   0  0
   -3.8991   -0.7525    0.0000 C   0  0
   -5.1969   -1.5046    0.0000 C   0  0
   -5.1945   -3.0046    0.0000 C   0  0
   -3.8943   -3.7525    0.0000 C   0  0
   -2.5964   -3.0004    0.0000 C   0  0
    0.0000   -1.5000    0.0000 C   0  0
    2.5903   -4.5339    0.0000 P   0  0
    1.2893   -5.2805    0.0000 O   0  0
    2.5862   -6.0339    0.0000 O   0  0
    3.4549   -5.0363    0.0000 O   0  0
  1  2  2  0
  2  3  1  0
  2  4  1  0
  2  5  1  0
  5  6  1  4
  5  7  1  0
  7  8  1  0
  8  9  2  0
  9 10  1  0
 10 11  2  0
 11 12  1  0
 12 13  1  0
 13 14  2  0
 14 15  1  0
 15 16  2  0
 16 17  1  0
 17 18  2  0
 18 13  1  0
 12 19  2  0
 19  8  1  0
  5 20  1  0
 20 21  2  0
 20 22  1  0
 20 23  1  0
M  CHG  2   3  -1   8   1
M  END
> <Smiles>
O=P([O-])(O)C(O)(C[n+]1cccc(-c2ccccc2)c1)P(=O)(O)O

> <ID>
CHEMBL192342

> <standard_value>
27200

> <IC50_uM>
27.2

> <Activity>
No

> <pIC50>
4.565431096

> <BCI>
0

$$$$

  SciTegic03012415362D

 30 32  0  0  0  0            999 V2000
    2.5863    8.3799    0.0000 O   0  0
    2.6648    6.8820    0.0000 C   0  0
    4.0013    6.2010    0.0000 C   0  0
    4.0798    4.7030    0.0000 C   0  0
    5.4172    4.0239    0.0000 O   0  0
    2.8180    3.8787    0.0000 C   0  0
    1.4815    4.5597    0.0000 C   0  0
    1.4068    6.0650    0.0000 C   0  0
    0.0000    4.7943    0.0000 C   0  0
   -1.4816    4.5597    0.0000 C   0  0
   -2.8181    3.8787    0.0000 C   0  0
   -3.8787    2.8180    0.0000 C   0  0
   -4.5597    1.4815    0.0000 C   0  0
   -4.7943    0.0000    0.0000 C   0  0
   -4.5597   -1.4816    0.0000 C   0  0
   -3.8787   -2.8181    0.0000 C   0  0
   -2.8180   -3.8787    0.0000 C   0  0
   -1.4815   -4.5597    0.0000 C   0  0
    0.0000   -4.7943    0.0000 C   0  0
    1.4815   -4.5597    0.0000 C   0  0
    2.8181   -3.8787    0.0000 C   0  0
    3.8787   -2.8180    0.0000 C   0  0
    4.5597   -1.4815    0.0000 C   0  0
    2.6409   -0.3411    0.0000 C   0  0
    2.4062    1.1405    0.0000 C   0  0
    0.9653    1.5574    0.0000 O   0  0
    3.8787    2.8180    0.0000 C   0  0  3  0  0  0
    4.5597    1.4815    0.0000 C   0  0
    5.9863    1.9451    0.0000 O   0  0
    4.7943    0.0000    0.0000 C   0  0
  1  2  1  0
  2  3  2  0
  3  4  1  0
  4  5  1  0
  4  6  2  0
  6  7  1  0
  7  8  2  0
  8  2  1  0
  7  9  1  0
  9 10  1  0
 10 11  1  0
 11 12  1  0
 12 13  1  0
 13 14  1  0
 14 15  1  0
 15 16  1  0
 16 17  1  0
 17 18  1  0
 18 19  1  0
 19 20  1  0
 20 21  1  0
 21 22  1  0
 22 23  1  0
 23 24  2  0
 24 25  1  0
 25 26  1  0
 25 27  2  0
 27  6  1  0
 27 28  1  4
 28 29  1  0
 28 30  2  0
 30 23  1  0
M  END
> <Smiles>
Oc1cc(O)c2c(c1)CCCCCCCCCCCCCCc1cc(O)c-2c(O)c1

> <ID>
CHEMBL374437

> <standard_value>
27700

> <IC50_uM>
27.7

> <Activity>
No

> <pIC50>
4.557520231

> <BCI>
0

$$$$

  SciTegic03012415362D

 31 34  0  0  1  0            999 V2000
    2.2287    2.1887    0.0000 C   0  0
    3.6845    2.5501    0.0000 C   0  0
    4.0994    3.9916    0.0000 C   0  0
    5.5552    4.3530    0.0000 C   0  0
    6.5961    3.2729    0.0000 C   0  0
    6.1812    1.8314    0.0000 C   0  0
    5.7324    0.4001    0.0000 C   0  0
    7.6281    2.2270    0.0000 C   0  0
    4.7254    1.4699    0.0000 C   0  0  3  0  0  0
    4.3073    0.0285    0.0000 C   0  0
    2.8502   -0.3311    0.0000 C   0  0
    2.4133   -1.7530    0.0000 C   0  0  2  0  0  0
    3.3993   -2.8834    0.0000 C   0  0
    1.2990   -0.7500    0.0000 C   0  0
    1.2990    0.7500    0.0000 C   0  0
    2.5981    1.5000    0.0000 O   0  0
    0.0000    1.5000    0.0000 C   0  0
   -1.2990    0.7500    0.0000 C   0  0
   -1.2990   -0.7500    0.0000 C   0  0
    0.0000   -1.5000    0.0000 C   0  0
    0.3114   -2.9665    0.0000 O   0  0
    1.8032   -3.1233    0.0000 C   0  0  2  0  0  0
    2.5532   -4.4223    0.0000 C   0  0
   -2.5981   -1.5000    0.0000 C   0  0
   -2.5981   -3.0000    0.0000 O   0  0
   -3.8971   -0.7500    0.0000 C   0  0
   -3.8971    0.7500    0.0000 C   0  0
   -5.1984    1.4977    0.0000 O   0  0
   -6.4964    0.7459    0.0000 C   0  0
   -2.5981    1.5000    0.0000 C   0  0
   -2.5981    3.0000    0.0000 O   0  0
  1  2  2  0
  2  3  1  0
  3  4  1  0
  4  5  1  0
  5  6  1  0
  6  7  1  0
  6  8  1  0
  6  9  1  0
  9  2  1  0
  9 10  1  4
 10 11  1  0
 11 12  1  0
 12 13  1  6
 12 14  1  0
 14 15  2  0
 15 16  1  0
 15 17  1  0
 17 18  2  0
 18 19  1  0
 19 20  2  0
 20 14  1  0
 20 21  1  0
 21 22  1  0
 22 12  1  0
 22 23  1  1
 19 24  1  0
 24 25  2  0
 24 26  1  0
 26 27  2  0
 27 28  1  0
 28 29  1  0
 27 30  1  0
 30 18  1  0
 30 31  2  0
M  END
> <Smiles>
C=C1CCCC(C)(C)C1CC[C@]1(C)c2c(O)cc3c(c2O[C@@H]1C)C(=O)C=C(OC)C3=O

> <ID>
CHEMBL3092697

> <standard_value>
27900

> <IC50_uM>
27.9

> <Activity>
No

> <pIC50>
4.554395797

> <BCI>
0

$$$$

  SciTegic03012415362D

 24 26  0  0  0  0            999 V2000
    2.5951   -3.0031    0.0000 C   0  0
    2.5973   -1.5031    0.0000 O   0  0
    1.2990   -0.7500    0.0000 C   0  0
    1.2990    0.7500    0.0000 C   0  0
    2.5987    1.5004    0.0000 C   0  0
    3.8991    0.7525    0.0000 C   0  0
    5.1969    1.5046    0.0000 C   0  0
    5.1945    3.0046    0.0000 C   0  0
    3.8943    3.7525    0.0000 C   0  0
    2.5964    3.0004    0.0000 C   0  0
    0.0000    1.5000    0.0000 C   0  0
    0.0000    3.0000    0.0000 O   0  0
   -1.2990    0.7500    0.0000 C   0  0
   -2.6003    1.4977    0.0000 O   0  0
   -3.8983    0.7459    0.0000 C   0  0
   -1.2990   -0.7500    0.0000 C   0  0
   -2.5987   -1.5004    0.0000 C   0  0
   -3.8991   -0.7525    0.0000 C   0  0
   -5.1969   -1.5046    0.0000 C   0  0
   -5.1945   -3.0046    0.0000 C   0  0
   -3.8943   -3.7525    0.0000 C   0  0
   -2.5964   -3.0004    0.0000 C   0  0
    0.0000   -1.5000    0.0000 C   0  0
    0.0000   -3.0000    0.0000 O   0  0
  1  2  1  0
  2  3  1  0
  3  4  2  0
  4  5  1  0
  5  6  2  0
  6  7  1  0
  7  8  2  0
  8  9  1  0
  9 10  2  0
 10  5  1  0
  4 11  1  0
 11 12  2  0
 11 13  1  0
 13 14  1  0
 14 15  1  0
 13 16  2  0
 16 17  1  0
 17 18  2  0
 18 19  1  0
 19 20  2  0
 20 21  1  0
 21 22  2  0
 22 17  1  0
 16 23  1  0
 23  3  1  0
 23 24  2  0
M  END
> <Smiles>
COC1=C(c2ccccc2)C(=O)C(OC)=C(c2ccccc2)C1=O

> <ID>
CHEMBL467203

> <standard_value>
28000

> <IC50_uM>
28

> <Activity>
No

> <pIC50>
4.552841969

> <BCI>
0

$$$$

  SciTegic03012415362D

 50 50  0  0  0  0            999 V2000
    7.7801  -12.0183    0.0000 C   0  0
    7.7821  -10.5183    0.0000 C   0  0
    9.0824   -9.7705    0.0000 C   0  0
    6.4839   -9.7653    0.0000 O   0  0
    6.4859   -8.2645    0.0000 C   0  0
    7.7862   -7.5167    0.0000 O   0  0
    5.1877   -7.5115    0.0000 O   0  0
    5.1897   -6.0107    0.0000 C   0  0
    3.8915   -5.2577    0.0000 O   0  0
    3.8935   -3.7568    0.0000 P   0  0
    5.1914   -4.5088    0.0000 O   0  0
    5.1944   -3.0086    0.0000 O   0  0
    6.4934   -3.7603    0.0000 C   0  0
    7.7944   -3.0121    0.0000 O   0  0
    9.0934   -3.7638    0.0000 C   0  0
    9.0914   -5.2638    0.0000 O   0  0
   10.3944   -3.0155    0.0000 O   0  0
   11.6934   -3.7673    0.0000 C   0  0
   12.9936   -3.0194    0.0000 C   0  0
   11.6914   -5.2673    0.0000 C   0  0
    2.5951   -3.0039    0.0000 C   0  0
    2.5973   -1.5030    0.0000 C   0  0
    3.8977   -0.7537    0.0000 C   0  0
    3.9021    0.7463    0.0000 C   0  0
    5.2033    1.4925    0.0000 C   0  0
    6.5001    0.7387    0.0000 C   0  0
    7.8013    1.4850    0.0000 F   0  0
    6.4958   -0.7612    0.0000 C   0  0
    7.7927   -1.5150    0.0000 F   0  0
    5.1946   -1.5075    0.0000 C   0  0
    1.2932   -3.7503    0.0000 P   0  0
   -0.0081   -4.4963    0.0000 O   0  0
   -0.0041   -2.9955    0.0000 O   0  0
    0.0000   -1.4947    0.0000 C   0  0
   -1.2972   -0.7399    0.0000 O   0  0
   -1.2931    0.7609    0.0000 C   0  0
    0.0082    1.5069    0.0000 O   0  0
   -2.5903    1.5157    0.0000 O   0  0
   -2.5862    3.0165    0.0000 C   0  0
   -3.8827    3.7708    0.0000 C   0  0
   -1.2849    3.7625    0.0000 C   0  0
    1.2891   -5.2511    0.0000 O   0  0
   -0.0122   -5.9988    0.0000 C   0  0
   -0.0163   -7.4996    0.0000 O   0  0
   -1.3177   -8.2473    0.0000 C   0  0
   -2.6149   -7.4942    0.0000 O   0  0
   -1.3217   -9.7481    0.0000 O   0  0
   -2.6231  -10.4958    0.0000 C   0  0
   -2.6272  -11.9958    0.0000 C   0  0
   -3.9203   -9.7427    0.0000 C   0  0
  1  2  1  0
  2  3  1  0
  2  4  1  0
  4  5  1  0
  5  6  2  0
  5  7  1  0
  7  8  1  0
  8  9  1  0
  9 10  1  0
 10 11  2  0
 10 12  1  0
 12 13  1  0
 13 14  1  0
 14 15  1  0
 15 16  2  0
 15 17  1  0
 17 18  1  0
 18 19  1  0
 18 20  1  0
 10 21  1  0
 21 22  1  0
 22 23  1  0
 23 24  2  0
 24 25  1  0
 25 26  2  0
 26 27  1  0
 26 28  1  0
 28 29  1  0
 28 30  2  0
 30 23  1  0
 21 31  1  0
 31 32  2  0
 31 33  1  0
 33 34  1  0
 34 35  1  0
 35 36  1  0
 36 37  2  0
 36 38  1  0
 38 39  1  0
 39 40  1  0
 39 41  1  0
 31 42  1  0
 42 43  1  0
 43 44  1  0
 44 45  1  0
 45 46  2  0
 45 47  1  0
 47 48  1  0
 48 49  1  0
 48 50  1  0
M  END
> <Smiles>
CC(C)OC(=O)OCOP(=O)(OCOC(=O)OC(C)C)C(Cc1ccc(F)c(F)c1)P(=O)(OCOC(=O)OC(C)C)OCOC(=O)OC(C)C

> <ID>
CHEMBL212843

> <standard_value>
28300

> <IC50_uM>
28.3

> <Activity>
No

> <pIC50>
4.548213564

> <BCI>
0

$$$$

  SciTegic03012415362D

 19 19  0  0  1  0            999 V2000
    2.5981   -1.5000    0.0000 C   0  0
    1.2990   -0.7500    0.0000 C   0  0
    1.2990    0.7500    0.0000 C   0  0
    0.0000    1.5000    0.0000 C   0  0
    0.0000    3.0000    0.0000 O   0  0
   -1.2990    0.7500    0.0000 C   0  0
   -1.2990   -0.7500    0.0000 C   0  0
   -2.5981   -1.5000    0.0000 O   0  0
    0.0000   -1.5000    0.0000 C   0  0
    0.0031   -3.0008    0.0000 C   0  0
   -1.2946   -3.7531    0.0000 O   0  0
    1.3039   -3.7494    0.0000 O   0  0
    1.3070   -5.2502    0.0000 C   0  0
    2.6078   -5.9988    0.0000 C   0  0
    3.9056   -5.2465    0.0000 O   0  0
    2.6109   -7.4996    0.0000 C   0  0
    3.9117   -8.2481    0.0000 C   0  0  2  0  0  0
    5.2095   -7.4959    0.0000 C   0  0
    3.9148   -9.7481    0.0000 O   0  0
  1  2  1  0
  2  3  2  0
  3  4  1  0
  4  5  1  0
  4  6  2  0
  6  7  1  0
  7  8  1  0
  7  9  2  0
  9  2  1  0
  9 10  1  0
 10 11  2  0
 10 12  1  0
 12 13  1  0
 13 14  1  0
 14 15  2  0
 14 16  1  0
 16 17  1  0
 17 18  1  6
 17 19  1  0
M  END
> <Smiles>
Cc1cc(O)cc(O)c1C(=O)OCC(=O)C[C@H](C)O

> <ID>
CHEMBL451453

> <standard_value>
29100

> <IC50_uM>
29.1

> <Activity>
No

> <pIC50>
4.536107011

> <BCI>
0

$$$$

  SciTegic03012415362D

 30 31  0  0  0  0            999 V2000
    2.5981   -1.5000    0.0000 O   0  0
    1.2990   -0.7500    0.0000 C   0  0
    1.2990    0.7500    0.0000 C   0  0
    0.0000    1.5000    0.0000 C   0  0
    0.0000    3.0000    0.0000 O   0  0
   -1.2990    0.7500    0.0000 C   0  0
   -1.2990   -0.7500    0.0000 C   0  0
   -2.5972   -1.5031    0.0000 C   0  0
   -2.5951   -3.0039    0.0000 C   0  0
   -3.8933   -3.7570    0.0000 C   0  0
   -3.8912   -5.2578    0.0000 C   0  0
   -5.1894   -6.0109    0.0000 C   0  0
   -5.1872   -7.5117    0.0000 C   0  0
   -6.4854   -8.2648    0.0000 C   0  0
   -6.4833   -9.7657    0.0000 C   0  0
   -7.7815  -10.5188    0.0000 C   0  0
   -7.7793  -12.0196    0.0000 C   0  0
   -9.0775  -12.7727    0.0000 C   0  0
   -9.0754  -14.2735    0.0000 C   0  0
  -10.3736  -15.0266    0.0000 C   0  0
  -10.3715  -16.5274    0.0000 C   0  0
  -11.6697  -17.2805    0.0000 C   0  0
  -11.6697  -18.7805    0.0000 C   0  0
  -12.9687  -19.5306    0.0000 C   0  0
  -12.9687  -21.0306    0.0000 O   0  0
  -14.2678  -18.7806    0.0000 C   0  0
  -14.2678  -17.2806    0.0000 C   0  0
  -15.5669  -16.5306    0.0000 O   0  0
  -12.9688  -16.5306    0.0000 C   0  0
    0.0000   -1.5000    0.0000 C   0  0
  1  2  1  0
  2  3  2  0
  3  4  1  0
  4  5  1  0
  4  6  2  0
  6  7  1  0
  7  8  1  0
  8  9  1  0
  9 10  1  0
 10 11  1  0
 11 12  1  0
 12 13  1  0
 13 14  1  0
 14 15  1  0
 15 16  1  0
 16 17  1  0
 17 18  1  0
 18 19  1  0
 19 20  1  0
 20 21  1  0
 21 22  1  0
 22 23  2  0
 23 24  1  0
 24 25  1  0
 24 26  2  0
 26 27  1  0
 27 28  1  0
 27 29  2  0
 29 22  1  0
  7 30  2  0
 30  2  1  0
M  END
> <Smiles>
Oc1cc(O)cc(CCCCCCCCCCCCCCc2cc(O)cc(O)c2)c1

> <ID>
CHEMBL426392

> <standard_value>
29800

> <IC50_uM>
29.8

> <Activity>
No

> <pIC50>
4.525783736

> <BCI>
0

$$$$

  SciTegic03012415362D

 27 31  0  0  1  0            999 V2000
    2.5228   -3.0436    0.0000 C   0  0
    1.2626   -2.2300    0.0000 C   0  0
    1.2990   -0.7500    0.0000 C   0  0  1  0  0  0
    2.5793    0.0316    0.0000 O   0  0
    1.2990    0.7500    0.0000 C   0  0
    2.5981    1.5000    0.0000 O   0  0
    0.0000    1.5000    0.0000 O   0  0
   -1.2990    0.7500    0.0000 C   0  0
   -1.2990   -0.7500    0.0000 C   0  0
    0.0000   -1.5000    0.0000 C   0  0
    0.0000   -3.0000    0.0000 C   0  0
   -1.2990   -3.7500    0.0000 C   0  0
   -2.5981   -3.0000    0.0000 N   0  0
   -2.5981   -1.5000    0.0000 C   0  0
   -3.8971   -0.7500    0.0000 O   0  0
   -3.7124   -4.0030    0.0000 C   0  0
   -3.1022   -5.3733    0.0000 C   0  0
   -3.7125   -6.7424    0.0000 C   0  0
   -2.8308   -7.9559    0.0000 C   0  0
   -3.4409   -9.3262    0.0000 C   0  0
   -2.5592  -10.5397    0.0000 C   0  0
   -3.1693  -11.9101    0.0000 O   0  0
   -1.0674  -10.3829    0.0000 C   0  0
   -0.4573   -9.0126    0.0000 C   0  0
   -1.3390   -7.7991    0.0000 C   0  0
   -0.7289   -6.4288    0.0000 N   0  0
   -1.6105   -5.2165    0.0000 C   0  0
  1  2  1  0
  2  3  1  0
  3  4  1  1
  3  5  1  0
  5  6  2  0
  5  7  1  0
  7  8  1  0
  8  9  1  0
  9 10  2  0
 10  3  1  0
 10 11  1  0
 11 12  2  0
 12 13  1  0
 13 14  1  0
 14  9  1  0
 14 15  2  0
 13 16  1  0
 16 17  1  0
 17 18  2  0
 18 19  1  0
 19 20  2  0
 20 21  1  0
 21 22  1  0
 21 23  2  0
 23 24  1  0
 24 25  2  0
 25 19  1  0
 25 26  1  0
 26 27  2  0
 27 17  1  0
 27 12  1  0
M  END
> <Smiles>
CC[C@@]1(O)C(=O)OCc2c1cc1n(c2=O)Cc2cc3cc(O)ccc3nc2-1

> <ID>
CHEMBL273862

> <standard_value>
29880

> <IC50_uM>
29.88

> <Activity>
No

> <pIC50>
4.524619407

> <BCI>
0

$$$$

  SciTegic03012415362D

 31 32  0  0  0  0            999 V2000
    2.5951   -3.0031    0.0000 C   0  0
    2.5973   -1.5031    0.0000 O   0  0
    1.2990   -0.7500    0.0000 C   0  0
    1.2990    0.7500    0.0000 C   0  0
    0.0000    1.5000    0.0000 C   0  0
    0.0000    3.0000    0.0000 O   0  0
   -1.2990    0.7500    0.0000 C   0  0
   -1.2990   -0.7500    0.0000 C   0  0
   -2.5972   -1.5031    0.0000 C   0  0
   -2.5951   -3.0039    0.0000 C   0  0
   -3.8933   -3.7570    0.0000 C   0  0
   -3.8912   -5.2578    0.0000 C   0  0
   -5.1894   -6.0109    0.0000 C   0  0
   -5.1872   -7.5117    0.0000 C   0  0
   -6.4854   -8.2648    0.0000 C   0  0
   -6.4833   -9.7657    0.0000 C   0  0
   -7.7815  -10.5188    0.0000 C   0  0
   -7.7793  -12.0196    0.0000 C   0  0
   -9.0775  -12.7727    0.0000 C   0  0
   -9.0754  -14.2735    0.0000 C   0  0
  -10.3736  -15.0266    0.0000 C   0  0
  -10.3715  -16.5274    0.0000 C   0  0
  -11.6697  -17.2805    0.0000 C   0  0
  -11.6697  -18.7805    0.0000 C   0  0
  -12.9687  -19.5306    0.0000 C   0  0
  -12.9687  -21.0306    0.0000 O   0  0
  -14.2678  -18.7806    0.0000 C   0  0
  -14.2678  -17.2806    0.0000 C   0  0
  -15.5669  -16.5306    0.0000 O   0  0
  -12.9688  -16.5306    0.0000 C   0  0
    0.0000   -1.5000    0.0000 C   0  0
  1  2  1  0
  2  3  1  0
  3  4  2  0
  4  5  1  0
  5  6  1  0
  5  7  2  0
  7  8  1  0
  8  9  1  0
  9 10  1  0
 10 11  1  0
 11 12  1  0
 12 13  1  0
 13 14  1  0
 14 15  1  0
 15 16  1  0
 16 17  2  0
 17 18  1  0
 18 19  1  0
 19 20  1  0
 20 21  1  0
 21 22  1  0
 22 23  1  0
 23 24  2  0
 24 25  1  0
 25 26  1  0
 25 27  2  0
 27 28  1  0
 28 29  1  0
 28 30  2  0
 30 23  1  0
  8 31  2  0
 31  3  1  0
M  END
> <Smiles>
COc1cc(O)cc(CCCCCCC/C=C/CCCCCc2cc(O)cc(O)c2)c1

> <ID>
CHEMBL221394

> <standard_value>
30200

> <IC50_uM>
30.2

> <Activity>
No

> <pIC50>
4.519993057

> <BCI>
0

$$$$

  SciTegic03012415362D

 27 29  0  0  0  0            999 V2000
    3.8983   -0.7459    0.0000 C   0  0
    2.6003   -1.4977    0.0000 O   0  0
    1.2990   -0.7500    0.0000 C   0  0
    1.2990    0.7500    0.0000 C   0  0
    0.0000    1.5000    0.0000 C   0  0
   -1.2990    0.7500    0.0000 C   0  0
   -1.2990   -0.7500    0.0000 C   0  0
   -2.5981   -1.5000    0.0000 N   0  0
   -2.5981   -3.0000    0.0000 C   0  0
   -3.8971   -3.7500    0.0000 C   0  0
   -5.1984   -3.0023    0.0000 O   0  0
   -6.4971   -3.7546    0.0000 C   0  0
   -7.7984   -3.0069    0.0000 C   0  0
   -9.0971   -3.7591    0.0000 C   0  0
   -9.0944   -5.2591    0.0000 C   0  0
  -10.3984   -3.0114    0.0000 C   0  0
  -11.6970   -3.7637    0.0000 C   0  0
  -12.9983   -3.0160    0.0000 C   0  0
  -14.2970   -3.7682    0.0000 C   0  0
  -15.5976   -3.0209    0.0000 C   0  0
  -14.2944   -5.2682    0.0000 C   0  0
   -3.8971   -5.2500    0.0000 C   0  0
   -2.5980   -6.0000    0.0000 C   0  0
   -1.2990   -5.2500    0.0000 C   0  0
   -1.2990   -3.7500    0.0000 C   0  0
    0.0000   -3.0000    0.0000 N   0  0
    0.0000   -1.5000    0.0000 C   0  0
  1  2  1  0
  2  3  1  0
  3  4  2  0
  4  5  1  0
  5  6  2  0
  6  7  1  0
  7  8  2  0
  8  9  1  0
  9 10  2  0
 10 11  1  0
 11 12  1  0
 12 13  1  0
 13 14  2  0
 14 15  1  0
 14 16  1  0
 16 17  1  0
 17 18  1  0
 18 19  2  0
 19 20  1  0
 19 21  1  0
 10 22  1  0
 22 23  2  0
 23 24  1  0
 24 25  2  0
 25  9  1  0
 25 26  1  0
 26 27  2  0
 27  3  1  0
 27  7  1  0
M  END
> <Smiles>
COc1cccc2nc3c(OC/C=C(\C)CCC=C(C)C)cccc3nc12

> <ID>
CHEMBL3092701

> <standard_value>
30400

> <IC50_uM>
30.4

> <Activity>
No

> <pIC50>
4.517126416

> <BCI>
0

$$$$

  SciTegic03012415362D

 30 31  0  0  0  0            999 V2000
    2.5981   -1.5000    0.0000 O   0  0
    1.2990   -0.7500    0.0000 C   0  0
    1.2990    0.7500    0.0000 C   0  0
    0.0000    1.5000    0.0000 C   0  0
    0.0000    3.0000    0.0000 O   0  0
   -1.2990    0.7500    0.0000 C   0  0
   -1.2990   -0.7500    0.0000 C   0  0
   -2.5972   -1.5031    0.0000 C   0  0
   -2.5951   -3.0039    0.0000 C   0  0
   -3.8933   -3.7570    0.0000 C   0  0
   -3.8912   -5.2578    0.0000 C   0  0
   -5.1894   -6.0109    0.0000 C   0  0
   -5.1872   -7.5117    0.0000 C   0  0
   -6.4854   -8.2648    0.0000 C   0  0
   -6.4833   -9.7657    0.0000 C   0  0
   -7.7815  -10.5188    0.0000 C   0  0
   -7.7793  -12.0196    0.0000 C   0  0
   -9.0775  -12.7727    0.0000 C   0  0
   -9.0754  -14.2735    0.0000 C   0  0
  -10.3736  -15.0266    0.0000 C   0  0
  -10.3715  -16.5274    0.0000 C   0  0
  -11.6697  -17.2805    0.0000 C   0  0
  -11.6697  -18.7805    0.0000 C   0  0
  -12.9687  -19.5306    0.0000 C   0  0
  -12.9687  -21.0306    0.0000 O   0  0
  -14.2678  -18.7806    0.0000 C   0  0
  -14.2678  -17.2806    0.0000 C   0  0
  -15.5669  -16.5306    0.0000 O   0  0
  -12.9688  -16.5306    0.0000 C   0  0
    0.0000   -1.5000    0.0000 C   0  0
  1  2  1  0
  2  3  2  0
  3  4  1  0
  4  5  1  0
  4  6  2  0
  6  7  1  0
  7  8  1  0
  8  9  1  0
  9 10  1  0
 10 11  1  0
 11 12  1  0
 12 13  1  0
 13 14  2  0
 14 15  1  0
 15 16  1  0
 16 17  1  0
 17 18  1  0
 18 19  1  0
 19 20  1  0
 20 21  1  0
 21 22  1  0
 22 23  2  0
 23 24  1  0
 24 25  1  0
 24 26  2  0
 26 27  1  0
 27 28  1  0
 27 29  2  0
 29 22  1  0
  7 30  2  0
 30  2  1  0
M  END
> <Smiles>
Oc1cc(O)cc(CCCCC/C=C/CCCCCCCc2cc(O)cc(O)c2)c1

> <ID>
CHEMBL218716

> <standard_value>
30600

> <IC50_uM>
30.6

> <Activity>
No

> <pIC50>
4.514278574

> <BCI>
0

$$$$

  SciTegic03012415362D

 24 25  0  0  0  0            999 V2000
    3.8919   -4.7570    0.0000 O   0  0
    3.8933   -3.7570    0.0000 P   0  0
    5.1937   -3.0093    0.0000 O   0  5
    5.1912   -4.5090    0.0000 O   0  0
    2.5951   -3.0039    0.0000 C   0  0  3  0  0  0
    1.2948   -3.7516    0.0000 O   0  0
    2.5973   -1.5031    0.0000 C   0  0
    1.2990   -0.7500    0.0000 N   0  3
    1.2990    0.7500    0.0000 C   0  0
    0.0000    1.5000    0.0000 C   0  0
   -1.2990    0.7500    0.0000 C   0  0
   -1.2990   -0.7500    0.0000 C   0  0
   -2.5987   -1.5004    0.0000 C   0  0
   -3.8991   -0.7525    0.0000 C   0  0
   -5.1969   -1.5046    0.0000 C   0  0
   -5.1945   -3.0046    0.0000 C   0  0
   -6.4924   -3.7566    0.0000 O   0  5
   -3.8943   -3.7525    0.0000 C   0  0
   -2.5964   -3.0004    0.0000 C   0  0
    0.0000   -1.5000    0.0000 C   0  0
    2.5903   -4.5339    0.0000 P   0  0
    1.2893   -5.2805    0.0000 O   0  0
    2.5862   -6.0339    0.0000 O   0  0
    3.4549   -5.0363    0.0000 O   0  0
  1  2  2  0
  2  3  1  0
  2  4  1  0
  2  5  1  0
  5  6  1  4
  5  7  1  0
  7  8  1  0
  8  9  2  0
  9 10  1  0
 10 11  2  0
 11 12  1  0
 12 13  1  0
 13 14  2  0
 14 15  1  0
 15 16  2  0
 16 17  1  0
 16 18  1  0
 18 19  2  0
 19 13  1  0
 12 20  2  0
 20  8  1  0
  5 21  1  0
 21 22  2  0
 21 23  1  0
 21 24  1  0
M  CHG  3   3  -1   8   1  17  -1
M  END
> <Smiles>
O=P([O-])(O)C(O)(C[n+]1cccc(-c2ccc([O-])cc2)c1)P(=O)(O)O.[Na+]

> <ID>
CHEMBL193619

> <standard_value>
30700

> <IC50_uM>
30.7

> <Activity>
No

> <pIC50>
4.512861625

> <BCI>
0

> <RemovedSalts>
Na+

$$$$

  SciTegic03012415362D

 35 36  0  0  1  0            999 V2000
    6.4983   -0.7414    0.0000 C   0  0
    5.2003   -1.4932    0.0000 C   0  0
    3.8990   -0.7455    0.0000 C   0  0  3  0  0  0
    3.8964    0.7545    0.0000 C   0  0
    2.6003   -1.4977    0.0000 C   0  0
    2.6030   -2.9977    0.0000 O   0  0
    1.2990   -0.7500    0.0000 C   0  0
    1.2990    0.7500    0.0000 C   0  0
    2.5981    1.5000    0.0000 O   0  0
    0.0000    1.5000    0.0000 C   0  0
   -1.2990    0.7500    0.0000 C   0  0
   -2.5981    1.5000    0.0000 O   0  0
   -1.2990   -0.7500    0.0000 C   0  0
    0.0000   -1.5000    0.0000 C   0  0
    0.0000   -3.0000    0.0000 O   0  0
   -1.2990   -3.7500    0.0000 C   0  0  2  0  0  0
   -2.6161   -4.4680    0.0000 C   0  0
    0.0009   -4.4584    0.0000 C   0  0
    1.3010   -3.7086    0.0000 C   0  0
    2.6009   -4.4587    0.0000 C   0  0
    3.9010   -3.7088    0.0000 C   0  0
    3.9011   -2.2088    0.0000 C   0  0
    5.2009   -4.4590    0.0000 C   0  0
    6.5009   -3.7091    0.0000 C   0  0
    7.8008   -4.4592    0.0000 C   0  0
    9.1009   -3.7094    0.0000 C   0  0
   10.4001   -4.4591    0.0000 C   0  0
    9.1011   -2.2094    0.0000 C   0  0
   -2.5981   -3.0000    0.0000 C   0  0  1  0  0  0
   -3.8963   -3.7531    0.0000 C   0  0
   -3.8941   -5.2539    0.0000 C   0  0
   -5.1923   -6.0070    0.0000 C   0  0
   -5.1902   -7.5070    0.0000 C   0  0
   -6.4927   -5.2593    0.0000 C   0  0
   -2.5981   -1.5000    0.0000 C   0  0
  1  2  1  0
  2  3  1  0
  3  4  1  4
  3  5  1  0
  5  6  2  0
  5  7  1  0
  7  8  2  0
  8  9  1  0
  8 10  1  0
 10 11  2  0
 11 12  1  0
 11 13  1  0
 13 14  2  0
 14  7  1  0
 14 15  1  0
 15 16  1  0
 16 17  1  1
 16 18  1  0
 18 19  1  0
 19 20  1  0
 20 21  2  0
 21 22  1  0
 21 23  1  0
 23 24  1  0
 24 25  1  0
 25 26  2  0
 26 27  1  0
 26 28  1  0
 16 29  1  0
 29 30  1  1
 30 31  1  0
 31 32  2  0
 32 33  1  0
 32 34  1  0
 29 35  1  0
 35 13  1  0
M  END
> <Smiles>
CCC(C)C(=O)c1c(O)cc(O)c2c1O[C@](C)(CC/C=C(\C)CCC=C(C)C)[C@@H](CC=C(C)C)C2

> <ID>
CHEMBL448374

> <standard_value>
30900

> <IC50_uM>
30.9

> <Activity>
No

> <pIC50>
4.510041521

> <BCI>
0

$$$$

  SciTegic03012415362D

 43 45  0  0  1  0            999 V2000
    4.5992    5.8995    0.0000 C   0  0
    3.4865    4.8936    0.0000 C   0  0
    2.0591    5.3547    0.0000 C   0  0
    3.8005    3.4260    0.0000 C   0  0
    2.6807    2.4138    0.0000 C   0  0  2  0  0  0
    1.4672    3.2954    0.0000 N   0  0
    0.0000    3.6073    0.0000 C   0  0
    0.0000    5.1073    0.0000 O   0  0
   -1.4672    3.2954    0.0000 C   0  0  1  0  0  0
   -2.0785    4.6756    0.0000 C   0  0
   -1.1947    5.8886    0.0000 C   0  0
   -1.8021    7.2601    0.0000 C   0  0
    0.2969    5.7293    0.0000 C   0  0
   -2.6808    2.4137    0.0000 N   0  0
   -3.4308    1.1147    0.0000 C   0  0
   -4.8573    1.5782    0.0000 O   0  0
   -3.5875   -0.3771    0.0000 C   0  0  2  0  0  0
   -5.0890   -0.5319    0.0000 C   0  0
   -5.9695    0.6835    0.0000 C   0  0
   -7.4619    0.5318    0.0000 C   0  0
   -8.3394    1.7483    0.0000 C   0  0
   -7.7247    3.1166    0.0000 C   0  0
   -6.2324    3.2683    0.0000 C   0  0
   -5.3548    2.0518    0.0000 C   0  0
   -3.1240   -1.8037    0.0000 N   0  0
   -2.1203   -2.9184    0.0000 C   0  0
   -3.0020   -4.1319    0.0000 O   0  0
   -0.7500   -3.5285    0.0000 C   0  0  2  0  0  0
   -1.0619   -4.9957    0.0000 C   0  0
    0.7500   -3.5285    0.0000 O   0  0
    2.1203   -2.9184    0.0000 C   0  0
    3.0020   -4.1319    0.0000 O   0  0
    3.1240   -1.8036    0.0000 C   0  0  2  0  0  0
    4.4297   -2.5609    0.0000 C   0  0
    4.4277   -4.0618    0.0000 C   0  0
    5.7242   -4.8162    0.0000 C   0  0
    5.7191   -6.3162    0.0000 C   0  0
    4.4175   -7.0618    0.0000 C   0  0
    3.1210   -6.3074    0.0000 C   0  0
    3.1261   -4.8075    0.0000 C   0  0
    3.5875   -0.3771    0.0000 N   0  0
    3.4307    1.1147    0.0000 C   0  0
    4.8573    1.5782    0.0000 O   0  0
  1  2  1  0
  2  3  1  0
  2  4  1  0
  5  4  1  1
  5  6  1  0
  6  7  1  0
  7  8  2  0
  7  9  1  0
  9 10  1  6
 10 11  1  0
 11 12  1  0
 11 13  1  0
  9 14  1  0
 14 15  1  0
 15 16  2  0
 15 17  1  0
 17 18  1  1
 18 19  1  0
 19 20  2  0
 20 21  1  0
 21 22  2  0
 22 23  1  0
 23 24  2  0
 24 19  1  0
 17 25  1  0
 25 26  1  0
 26 27  2  0
 26 28  1  0
 28 29  1  1
 28 30  1  0
 30 31  1  0
 31 32  2  0
 31 33  1  0
 33 34  1  1
 34 35  1  0
 35 36  2  0
 36 37  1  0
 37 38  2  0
 38 39  1  0
 39 40  2  0
 40 35  1  0
 33 41  1  0
 41 42  1  0
 42  5  1  0
 42 43  2  0
M  END
> <Smiles>
CC(C)C[C@@H]1NC(=O)[C@@H](CC(C)C)NC(=O)[C@H](Cc2ccccc2)NC(=O)[C@H](C)OC(=O)[C@H](Cc2ccccc2)NC1=O

> <ID>
CHEMBL505354

> <standard_value>
31000

> <IC50_uM>
31

> <Activity>
No

> <pIC50>
4.508638306

> <BCI>
0

$$$$

  SciTegic03012415362D

 31 33  0  0  0  0            999 V2000
    0.0004    8.2509    0.0000 C   0  0
    0.0727    6.7527    0.0000 O   0  0
    1.4068    6.0650    0.0000 C   0  0
    2.6648    6.8820    0.0000 C   0  0
    4.0013    6.2010    0.0000 C   0  0
    5.2593    7.0179    0.0000 O   0  0
    4.0798    4.7030    0.0000 C   0  0
    2.8180    3.8787    0.0000 C   0  0
    1.4815    4.5597    0.0000 C   0  0  3  0  0  0
    0.0000    4.7943    0.0000 C   0  0
   -0.4917    2.6170    0.0000 C   0  0
    0.6925    1.6964    0.0000 O   0  0
   -1.8282    1.9360    0.0000 C   0  0
   -3.8787    2.8180    0.0000 C   0  0
   -2.8181    3.8787    0.0000 C   0  0
   -1.4816    4.5597    0.0000 C   0  0
   -1.9451    5.9863    0.0000 O   0  0
   -4.5597    1.4815    0.0000 C   0  0
   -4.7943    0.0000    0.0000 C   0  0
   -4.5597   -1.4816    0.0000 C   0  0
   -3.8787   -2.8181    0.0000 C   0  0
   -2.8180   -3.8787    0.0000 C   0  0
   -1.4815   -4.5597    0.0000 C   0  0
    0.0000   -4.7943    0.0000 C   0  0
    1.4815   -4.5597    0.0000 C   0  0
    2.8181   -3.8787    0.0000 C   0  0
    3.8787   -2.8180    0.0000 C   0  0
    4.5597   -1.4815    0.0000 C   0  0
    4.7943    0.0000    0.0000 C   0  0
    4.5597    1.4815    0.0000 C   0  0
    3.8787    2.8180    0.0000 C   0  0
  1  2  1  0
  2  3  1  0
  3  4  2  0
  4  5  1  0
  5  6  1  0
  5  7  2  0
  7  8  1  0
  8  9  2  0
  9  3  1  4
  9 10  1  0
 10 11  2  0
 11 12  1  0
 11 13  1  0
 13 14  2  0
 14 15  1  0
 15 16  2  0
 16 10  1  0
 16 17  1  0
 14 18  1  0
 18 19  1  0
 19 20  1  0
 20 21  1  0
 21 22  1  0
 22 23  1  0
 23 24  1  0
 24 25  1  0
 25 26  1  0
 26 27  1  0
 27 28  1  0
 28 29  1  0
 29 30  1  0
 30 31  1  0
 31  8  1  0
M  END
> <Smiles>
COc1cc(O)cc2c1-c1c(O)cc(cc1O)CCCCCCCCCCCCCC2

> <ID>
CHEMBL375783

> <standard_value>
31100

> <IC50_uM>
31.1

> <Activity>
No

> <pIC50>
4.507239611

> <BCI>
0

$$$$

  SciTegic03012415362D

 23 23  0  0  0  0            999 V2000
    6.4897   -5.2632    0.0000 C   0  0
    5.1894   -6.0109    0.0000 S   0  3
    3.8912   -5.2578    0.0000 C   0  0
    3.8933   -3.7570    0.0000 C   0  0
    2.5951   -3.0039    0.0000 C   0  0
    2.5973   -1.5031    0.0000 O   0  0
    1.2990   -0.7500    0.0000 C   0  0
    1.2990    0.7500    0.0000 C   0  0
    0.0000    1.5000    0.0000 C   0  0
   -1.2990    0.7500    0.0000 C   0  0
   -1.2990   -0.7500    0.0000 C   0  0
    0.0000   -1.5000    0.0000 C   0  0
    5.1873   -7.5117    0.0000 C   0  0
    6.4855   -8.2648    0.0000 C   0  0  3  0  0  0
    5.1851   -9.0125    0.0000 O   0  0
    6.4833   -9.7656    0.0000 P   0  0
    7.7808  -10.5183    0.0000 O   0  0
    5.1830  -10.5134    0.0000 O   0  5
    6.4805  -11.2656    0.0000 O   0  0
    7.7865   -7.5167    0.0000 P   0  0
    9.0847   -8.2681    0.0000 O   0  0
    9.0864   -6.7683    0.0000 O   0  0
    7.7886   -6.0167    0.0000 O   0  0
  1  2  1  0
  2  3  1  0
  3  4  1  0
  4  5  1  0
  5  6  1  0
  6  7  1  0
  7  8  2  0
  8  9  1  0
  9 10  2  0
 10 11  1  0
 11 12  2  0
 12  7  1  0
  2 13  1  0
 13 14  1  0
 14 15  1  4
 14 16  1  0
 16 17  2  0
 16 18  1  0
 16 19  1  0
 14 20  1  0
 20 21  2  0
 20 22  1  0
 20 23  1  0
M  CHG  2   2   1  18  -1
M  END
> <Smiles>
C[S+](CCCOc1ccccc1)CC(O)(P(=O)([O-])O)P(=O)(O)O

> <ID>
CHEMBL236977

> <standard_value>
31622.78

> <IC50_uM>
31.62278

> <Activity>
No

> <pIC50>
4.499999953

> <BCI>
0

$$$$

  SciTegic03012415362D

 31 33  0  0  1  0            999 V2000
    0.3177    1.0820    0.0000 O   0  0
    0.7403    2.5213    0.0000 C   0  0
    2.1980    2.8749    0.0000 C   0  0
    2.8492    4.4334    0.0000 C   0  0
    1.4847    5.0565    0.0000 C   0  0
    0.0000    5.2700    0.0000 C   0  0
   -0.2948    3.6069    0.0000 C   0  0
   -1.4848    5.0565    0.0000 O   0  0
   -2.8492    4.4334    0.0000 C   0  0
   -2.1658    2.2834    0.0000 C   0  0
   -0.6788    2.0864    0.0000 O   0  0
   -2.9768    1.0215    0.0000 C   0  0
   -5.2164    0.7500    0.0000 C   0  0
   -4.7938    2.1892    0.0000 C   0  0
   -3.9828    3.4511    0.0000 C   0  0
   -5.1165    4.4334    0.0000 O   0  0
   -5.2164   -0.7500    0.0000 C   0  0  2  0  0  0
   -6.7011   -0.9635    0.0000 O   0  0
   -4.7938   -2.1893    0.0000 C   0  0
   -3.9828   -3.4511    0.0000 C   0  0
   -2.8492   -4.4334    0.0000 C   0  0
   -1.4847   -5.0565    0.0000 C   0  0
    0.0000   -5.2700    0.0000 C   0  0
    1.4847   -5.0565    0.0000 C   0  0
    2.8492   -4.4334    0.0000 C   0  0
    3.9828   -3.4511    0.0000 C   0  0
    4.7938   -2.1892    0.0000 C   0  0
    5.2164   -0.7500    0.0000 C   0  0
    5.2164    0.7500    0.0000 C   0  0
    4.7938    2.1892    0.0000 C   0  0
    3.9828    3.4511    0.0000 C   0  0
  1  2  1  0
  2  3  2  0
  3  4  1  0
  4  5  2  0
  5  6  1  0
  6  7  2  0
  7  2  1  0
  6  8  1  0
  8  9  1  0
  9 10  2  0
 10 11  1  0
 10 12  1  0
 12 13  2  0
 13 14  1  0
 14 15  2  0
 15  9  1  0
 15 16  1  0
 13 17  1  0
 17 18  1  1
 17 19  1  0
 19 20  1  0
 20 21  1  0
 21 22  1  0
 22 23  1  0
 23 24  1  0
 24 25  1  0
 25 26  1  0
 26 27  1  0
 27 28  1  0
 28 29  1  0
 29 30  1  0
 30 31  1  0
 31  4  1  0
M  END
> <Smiles>
Oc1cc2cc(c1)Oc1c(O)cc(cc1O)[C@H](O)CCCCCCCCCCCCC2

> <ID>
CHEMBL386956

> <standard_value>
32100

> <IC50_uM>
32.1

> <Activity>
No

> <pIC50>
4.493494968

> <BCI>
0

$$$$

  SciTegic03012415362D

 29 32  0  0  0  0            999 V2000
    3.8716   -8.2615    0.0000 C   0  0
    2.5765   -7.5048    0.0000 C   0  0
    1.2731   -8.2489    0.0000 N   0  0
    1.2648   -9.7497    0.0000 O   0  0
   -0.0386  -10.4937    0.0000 C   0  0
   -0.0469  -11.9945    0.0000 C   0  0
   -1.3503  -12.7386    0.0000 C   0  0
   -1.3586  -14.2386    0.0000 N   0  0
    2.5847   -6.0040    0.0000 C   0  0
    3.8864   -5.2585    0.0000 C   0  0
    3.8915   -3.7585    0.0000 C   0  0
    2.5951   -3.0039    0.0000 C   0  0
    2.5973   -1.5031    0.0000 N   0  0
    1.2990   -0.7500    0.0000 C   0  0
    1.2990    0.7500    0.0000 C   0  0
    2.5981    1.5000    0.0000 C   0  0
    2.5981    3.0000    0.0000 C   0  0
    1.2990    3.7500    0.0000 C   0  0
    0.0000    3.0000    0.0000 C   0  0
    0.0000    1.5000    0.0000 C   0  0
   -1.2990    0.7500    0.0000 N   0  0
   -1.2990   -0.7500    0.0000 C   0  0
   -2.4133   -1.7530    0.0000 O   0  0
   -1.8032   -3.1233    0.0000 C   0  0
   -0.3114   -2.9665    0.0000 C   0  0
    0.6924   -4.0811    0.0000 Cl  0  0
    0.0000   -1.5000    0.0000 C   0  0
    1.2935   -3.7495    0.0000 C   0  0
    1.2883   -5.2495    0.0000 C   0  0
  1  2  1  0
  2  3  2  0
  3  4  1  0
  4  5  1  0
  5  6  1  0
  6  7  1  0
  7  8  1  0
  2  9  1  0
  9 10  2  0
 10 11  1  0
 11 12  2  0
 12 13  1  0
 13 14  1  0
 14 15  2  0
 15 16  1  0
 16 17  2  0
 17 18  1  0
 18 19  2  0
 19 20  1  0
 20 15  1  0
 20 21  2  0
 21 22  1  0
 22 23  1  0
 23 24  1  0
 24 25  2  0
 25 26  1  0
 25 27  1  0
 27 14  1  0
 27 22  2  0
 12 28  1  0
 28 29  2  0
 29  9  1  0
M  END
> <Smiles>
C/C(=N\OCCCN)c1ccc(Nc2c3ccccc3nc3occ(Cl)c23)cc1

> <ID>
CHEMBL1802742

> <standard_value>
32530

> <IC50_uM>
32.53

> <Activity>
No

> <pIC50>
4.487715937

> <BCI>
0

$$$$

  SciTegic03012415362D

 30 32  0  0  0  0            999 V2000
    0.3177    1.0820    0.0000 O   0  0
    0.7403    2.5213    0.0000 C   0  0
    2.1980    2.8749    0.0000 C   0  0
    2.8492    4.4334    0.0000 C   0  0
    1.4847    5.0565    0.0000 C   0  0
    0.0000    5.2700    0.0000 C   0  0
   -0.2948    3.6069    0.0000 C   0  0
   -1.4848    5.0565    0.0000 O   0  0
   -2.8492    4.4334    0.0000 C   0  0
   -2.1658    2.2834    0.0000 C   0  0
   -0.6788    2.0864    0.0000 O   0  0
   -2.9768    1.0215    0.0000 C   0  0
   -5.2164    0.7500    0.0000 C   0  0
   -4.7938    2.1892    0.0000 C   0  0
   -3.9828    3.4511    0.0000 C   0  0
   -5.1165    4.4334    0.0000 O   0  0
   -5.2164   -0.7500    0.0000 C   0  0
   -4.7938   -2.1893    0.0000 C   0  0
   -3.9828   -3.4511    0.0000 C   0  0
   -2.8492   -4.4334    0.0000 C   0  0
   -1.4847   -5.0565    0.0000 C   0  0
    0.0000   -5.2700    0.0000 C   0  0
    1.4847   -5.0565    0.0000 C   0  0
    2.8492   -4.4334    0.0000 C   0  0
    3.9828   -3.4511    0.0000 C   0  0
    4.7938   -2.1892    0.0000 C   0  0
    5.2164   -0.7500    0.0000 C   0  0
    5.2164    0.7500    0.0000 C   0  0
    4.7938    2.1892    0.0000 C   0  0
    3.9828    3.4511    0.0000 C   0  0
  1  2  1  0
  2  3  2  0
  3  4  1  0
  4  5  2  0
  5  6  1  0
  6  7  2  0
  7  2  1  0
  6  8  1  0
  8  9  1  0
  9 10  2  0
 10 11  1  0
 10 12  1  0
 12 13  2  0
 13 14  1  0
 14 15  2  0
 15  9  1  0
 15 16  1  0
 13 17  1  0
 17 18  1  0
 18 19  1  0
 19 20  1  0
 20 21  1  0
 21 22  1  0
 22 23  1  0
 23 24  1  0
 24 25  1  0
 25 26  1  0
 26 27  1  0
 27 28  1  0
 28 29  1  0
 29 30  1  0
 30  4  1  0
M  END
> <Smiles>
Oc1cc2cc(c1)Oc1c(O)cc(cc1O)CCCCCCCCCCCCCC2

> <ID>
CHEMBL218660

> <standard_value>
32700

> <IC50_uM>
32.7

> <Activity>
No

> <pIC50>
4.485452247

> <BCI>
0

$$$$

  SciTegic03012415362D

 30 32  0  0  0  0            999 V2000
   -0.1203   -0.3871    0.0000 O   0  0
    0.3153    1.0482    0.0000 C   0  0
    1.7762    1.3886    0.0000 C   0  0
    2.3123    2.8426    0.0000 C   0  0
    1.1630    3.8297    0.0000 C   0  0
   -0.3511    3.6490    0.0000 C   0  0
   -0.7099    2.1432    0.0000 C   0  0
   -1.2413    2.4165    0.0000 O   0  0
   -2.3938    3.4001    0.0000 C   0  0
   -1.9084    1.7287    0.0000 C   0  0
   -0.4324    1.4610    0.0000 O   0  0
   -2.8060    0.5269    0.0000 C   0  0
   -4.5447    0.5359    0.0000 C   0  0
   -4.8258    2.0127    0.0000 C   0  0
   -3.9090    3.2267    0.0000 C   0  0
   -4.6530    4.5292    0.0000 O   0  0
   -3.2592   -0.1984    0.0000 C   0  0
   -3.9440   -1.5534    0.0000 C   0  0
   -3.6715   -3.0310    0.0000 C   0  0
   -2.4767   -3.9093    0.0000 C   0  0
   -1.0333   -3.6158    0.0000 C   0  0
   -0.2829   -2.3378    0.0000 C   0  0
    1.1331   -2.7564    0.0000 C   0  0
    2.4125   -2.0201    0.0000 C   0  0
    3.6209   -2.8762    0.0000 C   0  0
    5.0018   -2.3561    0.0000 C   0  0
    5.5810   -0.9855    0.0000 C   0  0
    5.0948    0.4392    0.0000 C   0  0
    3.8455    1.3022    0.0000 C   0  0
    2.3218    1.3465    0.0000 C   0  0
  1  2  1  0
  2  3  2  0
  3  4  1  0
  4  5  2  0
  5  6  1  0
  6  7  2  0
  7  2  1  0
  6  8  1  0
  8  9  1  0
  9 10  2  0
 10 11  1  0
 10 12  1  0
 12 13  2  0
 13 14  1  0
 14 15  2  0
 15  9  1  0
 15 16  1  0
 13 17  1  0
 17 18  1  0
 18 19  1  0
 19 20  1  0
 20 21  1  0
 21 22  1  0
 22 23  1  0
 23 24  1  0
 24 25  2  0
 25 26  1  0
 26 27  1  0
 27 28  1  0
 28 29  1  0
 29 30  1  0
 30  4  1  0
M  END
> <Smiles>
Oc1cc2cc(c1)Oc1c(O)cc(cc1O)CCCCCCC/C=C/CCCCC2

> <ID>
CHEMBL218715

> <standard_value>
33100

> <IC50_uM>
33.1

> <Activity>
No

> <pIC50>
4.480172006

> <BCI>
0

$$$$

  SciTegic03012415362D

 30 32  0  0  0  0            999 V2000
    1.5008    8.7602    0.0000 O   0  0
    2.0198    7.3528    0.0000 C   0  0
    3.4981    7.0986    0.0000 C   0  0
    4.0171    5.6912    0.0000 C   0  0
    5.4948    5.4331    0.0000 O   0  0
    3.0486    4.5394    0.0000 C   0  0
    1.5882    4.7905    0.0000 C   0  0
    1.0605    6.1997    0.0000 C   0  0
    0.6286    3.6695    0.0000 C   0  0
   -0.8076    4.0397    0.0000 C   0  0
   -1.8323    2.9798    0.0000 C   0  0
   -1.4414    1.5385    0.0000 C   0  0
   -2.5889    0.6152    0.0000 C   0  0
   -2.5609   -0.8744    0.0000 C   0  0
   -3.8764   -1.5318    0.0000 C   0  0
   -4.0903   -3.0034    0.0000 C   0  0
   -3.3044   -4.2901    0.0000 C   0  0
   -1.9268   -4.9377    0.0000 C   0  0
   -0.4025   -4.8305    0.0000 C   0  0
    0.8927   -4.0216    0.0000 C   0  0
    1.6154   -2.6844    0.0000 C   0  0
    1.4769   -1.1835    0.0000 C   0  0
    2.9531   -0.8045    0.0000 C   0  0
    5.1144    0.3153    0.0000 C   0  0
    5.2236    1.8113    0.0000 C   0  0
    6.6048    2.3964    0.0000 O   0  0
    3.6247    3.1486    0.0000 C   0  0  3  0  0  0
    2.7770    1.8826    0.0000 C   0  0
    1.2775    1.9209    0.0000 O   0  0
    3.5476    0.5940    0.0000 C   0  0
  1  2  1  0
  2  3  2  0
  3  4  1  0
  4  5  1  0
  4  6  2  0
  6  7  1  0
  7  8  2  0
  8  2  1  0
  7  9  1  0
  9 10  1  0
 10 11  1  0
 11 12  1  0
 12 13  1  0
 13 14  1  0
 14 15  2  0
 15 16  1  0
 16 17  1  0
 17 18  1  0
 18 19  1  0
 19 20  1  0
 20 21  1  0
 21 22  1  0
 22 23  1  0
 23 24  2  0
 24 25  1  0
 25 26  1  0
 25 27  2  0
 27  6  1  0
 27 28  1  4
 28 29  1  0
 28 30  2  0
 30 23  1  0
M  END
> <Smiles>
Oc1cc(O)c2c(c1)CCCCC/C=C/CCCCCCCc1cc(O)c-2c(O)c1

> <ID>
CHEMBL221395

> <standard_value>
33400

> <IC50_uM>
33.4

> <Activity>
No

> <pIC50>
4.476253533

> <BCI>
0

$$$$

  SciTegic03012415362D

 28 30  0  0  1  0            999 V2000
    5.1873   -7.5109    0.0000 C   0  0
    5.1894   -6.0109    0.0000 C   0  0
    3.8912   -5.2578    0.0000 C   0  0
    3.8933   -3.7570    0.0000 C   0  0
    2.5951   -3.0039    0.0000 C   0  0
    2.5973   -1.5031    0.0000 C   0  0  2  0  0  0
    3.8999   -0.7576    0.0000 O   0  0
    5.1965   -1.5117    0.0000 C   0  0
    1.2990   -0.7500    0.0000 C   0  0
    1.2990    0.7500    0.0000 C   0  0
    2.5981    1.5000    0.0000 O   0  0
    0.0000    1.5000    0.0000 C   0  0
   -1.2990    0.7500    0.0000 C   0  0
   -1.2990   -0.7500    0.0000 C   0  0
    0.0000   -1.5000    0.0000 C   0  0
    0.0000   -3.0000    0.0000 O   0  0
   -2.5981   -1.5000    0.0000 C   0  0
   -2.5981   -3.0000    0.0000 O   0  0
   -3.8971   -0.7500    0.0000 C   0  0
   -5.1962   -1.5000    0.0000 C   0  0
   -5.1962   -3.0000    0.0000 O   0  0
   -6.4952   -0.7500    0.0000 C   0  0
   -6.4952    0.7500    0.0000 C   0  0
   -7.7942    1.5000    0.0000 O   0  0
   -5.1962    1.5000    0.0000 C   0  0
   -3.8971    0.7500    0.0000 C   0  0
   -2.5981    1.5000    0.0000 C   0  0
   -2.5981    3.0000    0.0000 O   0  0
  1  2  1  0
  2  3  1  0
  3  4  1  0
  4  5  1  0
  6  5  1  1
  6  7  1  0
  7  8  1  0
  6  9  1  0
  9 10  2  0
 10 11  1  0
 10 12  1  0
 12 13  2  0
 13 14  1  0
 14 15  2  0
 15  9  1  0
 15 16  1  0
 14 17  1  0
 17 18  2  0
 17 19  1  0
 19 20  2  0
 20 21  1  0
 20 22  1  0
 22 23  2  0
 23 24  1  0
 23 25  1  0
 25 26  2  0
 26 19  1  0
 26 27  1  0
 27 13  1  0
 27 28  2  0
M  END
> <Smiles>
CCCCC[C@H](OC)c1c(O)cc2c(c1O)C(=O)c1c(O)cc(O)cc1C2=O

> <ID>
CHEMBL2071289

> <standard_value>
33590

> <IC50_uM>
33.59

> <Activity>
No

> <pIC50>
4.473789996

> <BCI>
0

$$$$

  SciTegic03012415362D

 29 31  0  0  1  0            999 V2000
    5.1873   -7.5109    0.0000 C   0  0
    5.1894   -6.0109    0.0000 C   0  0
    3.8912   -5.2578    0.0000 C   0  0
    3.8933   -3.7570    0.0000 C   0  0
    2.5951   -3.0039    0.0000 C   0  0
    2.5973   -1.5031    0.0000 C   0  0  2  0  0  0
    3.8999   -0.7576    0.0000 O   0  0
    5.1965   -1.5117    0.0000 C   0  0
    1.2990   -0.7500    0.0000 C   0  0
    1.2990    0.7500    0.0000 C   0  0
    2.5981    1.5000    0.0000 O   0  0
    0.0000    1.5000    0.0000 C   0  0
   -1.2990    0.7500    0.0000 C   0  0
   -1.2990   -0.7500    0.0000 C   0  0
    0.0000   -1.5000    0.0000 C   0  0
    0.0000   -3.0000    0.0000 O   0  0
   -2.5981   -1.5000    0.0000 C   0  0
   -2.5981   -3.0000    0.0000 O   0  0
   -3.8971   -0.7500    0.0000 C   0  0
   -3.8971    0.7500    0.0000 C   0  0
   -5.1962    1.5000    0.0000 C   0  0
   -6.4952    0.7500    0.0000 C   0  0
   -7.7942    1.5000    0.0000 O   0  0
   -6.4952   -0.7500    0.0000 C   0  0
   -7.7942   -1.5000    0.0000 Cl  0  0
   -5.1961   -1.5000    0.0000 C   0  0
   -5.1961   -3.0000    0.0000 O   0  0
   -2.5981    1.5000    0.0000 C   0  0
   -2.5981    3.0000    0.0000 O   0  0
  1  2  1  0
  2  3  1  0
  3  4  1  0
  4  5  1  0
  6  5  1  1
  6  7  1  0
  7  8  1  0
  6  9  1  0
  9 10  2  0
 10 11  1  0
 10 12  1  0
 12 13  2  0
 13 14  1  0
 14 15  2  0
 15  9  1  0
 15 16  1  0
 14 17  1  0
 17 18  2  0
 17 19  1  0
 19 20  2  0
 20 21  1  0
 21 22  2  0
 22 23  1  0
 22 24  1  0
 24 25  1  0
 24 26  2  0
 26 19  1  0
 26 27  1  0
 20 28  1  0
 28 13  1  0
 28 29  2  0
M  END
> <Smiles>
CCCCC[C@H](OC)c1c(O)cc2c(c1O)C(=O)c1c(cc(O)c(Cl)c1O)C2=O

> <ID>
CHEMBL2071280

> <standard_value>
34060

> <IC50_uM>
34.06

> <Activity>
No

> <pIC50>
4.467755356

> <BCI>
0

$$$$

  SciTegic03012415362D

 40 41  0  0  1  0            999 V2000
    4.5992    5.8995    0.0000 C   0  0
    3.4865    4.8936    0.0000 C   0  0
    2.0591    5.3547    0.0000 C   0  0
    3.8005    3.4260    0.0000 C   0  0
    2.6807    2.4138    0.0000 C   0  0  2  0  0  0
    1.4672    3.2954    0.0000 N   0  0
    0.0000    3.6073    0.0000 C   0  0
    0.0000    5.1073    0.0000 O   0  0
   -1.4672    3.2954    0.0000 C   0  0  1  0  0  0
   -2.0785    4.6756    0.0000 C   0  0
   -1.1947    5.8886    0.0000 C   0  0
   -1.8021    7.2601    0.0000 C   0  0
    0.2969    5.7293    0.0000 C   0  0
   -2.6808    2.4137    0.0000 N   0  0
   -3.4308    1.1147    0.0000 C   0  0
   -4.8573    1.5782    0.0000 O   0  0
   -3.5875   -0.3771    0.0000 C   0  0  2  0  0  0
   -5.0793   -0.5339    0.0000 C   0  0
   -3.1240   -1.8037    0.0000 N   0  0
   -2.1203   -2.9184    0.0000 C   0  0
   -3.0020   -4.1319    0.0000 O   0  0
   -0.7500   -3.5285    0.0000 C   0  0  2  0  0  0
   -1.0667   -5.0043    0.0000 C   0  0
   -2.4947   -5.4662    0.0000 C   0  0
   -2.8095   -6.9328    0.0000 C   0  0
   -3.6078   -4.4606    0.0000 C   0  0
    0.7500   -3.5285    0.0000 O   0  0
    2.1203   -2.9184    0.0000 C   0  0
    3.0020   -4.1319    0.0000 O   0  0
    3.1240   -1.8036    0.0000 C   0  0  2  0  0  0
    4.4297   -2.5609    0.0000 C   0  0
    4.4277   -4.0618    0.0000 C   0  0
    5.7242   -4.8162    0.0000 C   0  0
    5.7191   -6.3162    0.0000 C   0  0
    4.4175   -7.0618    0.0000 C   0  0
    3.1210   -6.3074    0.0000 C   0  0
    3.1261   -4.8075    0.0000 C   0  0
    3.5875   -0.3771    0.0000 N   0  0
    3.4307    1.1147    0.0000 C   0  0
    4.8573    1.5782    0.0000 O   0  0
  1  2  1  0
  2  3  1  0
  2  4  1  0
  5  4  1  1
  5  6  1  0
  6  7  1  0
  7  8  2  0
  7  9  1  0
  9 10  1  6
 10 11  1  0
 11 12  1  0
 11 13  1  0
  9 14  1  0
 14 15  1  0
 15 16  2  0
 15 17  1  0
 17 18  1  1
 17 19  1  0
 19 20  1  0
 20 21  2  0
 20 22  1  0
 22 23  1  1
 23 24  1  0
 24 25  1  0
 24 26  1  0
 22 27  1  0
 27 28  1  0
 28 29  2  0
 28 30  1  0
 30 31  1  1
 31 32  1  0
 32 33  2  0
 33 34  1  0
 34 35  2  0
 35 36  1  0
 36 37  2  0
 37 32  1  0
 30 38  1  0
 38 39  1  0
 39  5  1  0
 39 40  2  0
M  END
> <Smiles>
CC(C)C[C@@H]1NC(=O)[C@@H](CC(C)C)NC(=O)[C@H](C)NC(=O)[C@H](CC(C)C)OC(=O)[C@H](Cc2ccccc2)NC1=O

> <ID>
CHEMBL478414

> <standard_value>
35000

> <IC50_uM>
35

> <Activity>
No

> <pIC50>
4.455931956

> <BCI>
0

$$$$

  SciTegic03012415362D

 26 29  0  0  0  0            999 V2000
    2.5800    0.0305    0.0000 C   0  0
    1.2990   -0.7500    0.0000 C   0  0
    1.2638   -2.2496    0.0000 C   0  0
    1.2990    0.7500    0.0000 C   0  0
    0.0000    1.5000    0.0000 C   0  0
    0.0000    3.0000    0.0000 O   0  0
   -1.2990    0.7500    0.0000 C   0  0
   -1.2990   -0.7500    0.0000 C   0  0
    0.0000   -1.5000    0.0000 C   0  0
   -2.5981   -1.5000    0.0000 O   0  0
   -3.8971   -0.7500    0.0000 C   0  0
   -3.8971    0.7500    0.0000 C   0  0
   -5.1962    1.5000    0.0000 C   0  0
   -5.1962    3.0000    0.0000 O   0  0
   -6.4952    0.7500    0.0000 C   0  0
   -6.4952   -0.7500    0.0000 C   0  0
   -7.7762    0.0304    0.0000 C   0  0
   -6.4600   -2.2496    0.0000 C   0  0
   -5.1961   -1.5000    0.0000 C   0  0
   -2.5981    1.5000    0.0000 C   0  0
   -2.5981    3.0007    0.0000 C   0  0
   -3.8959    3.7529    0.0000 C   0  0
   -3.8936    5.2529    0.0000 C   0  0
   -2.5933    6.0009    0.0000 C   0  0
   -1.2955    5.2488    0.0000 C   0  0
   -1.2979    3.7488    0.0000 C   0  0
  1  2  1  0
  2  3  1  0
  2  4  1  0
  4  5  1  0
  5  6  2  0
  5  7  1  0
  7  8  2  0
  8  9  1  0
  9  2  1  0
  8 10  1  0
 10 11  1  0
 11 12  2  0
 12 13  1  0
 13 14  2  0
 13 15  1  0
 15 16  1  0
 16 17  1  0
 16 18  1  0
 16 19  1  0
 19 11  1  0
 12 20  1  0
 20  7  1  0
 20 21  1  0
 21 22  2  0
 22 23  1  0
 23 24  2  0
 24 25  1  0
 25 26  2  0
 26 21  1  0
M  END
> <Smiles>
CC1(C)CC(=O)C2=C(C1)OC1=C(C(=O)CC(C)(C)C1)C2c1ccccc1

> <ID>
CHEMBL1348027

> <standard_value>
36300

> <IC50_uM>
36.3

> <Activity>
No

> <pIC50>
4.440093375

> <BCI>
0

$$$$

  SciTegic03012415362D

 26 27  0  0  0  0            999 V2000
    1.2924   -8.2599    0.0000 C   0  0
    2.5912   -7.5095    0.0000 C   0  0
    2.5917   -6.0086    0.0000 C   0  0
    3.8912   -5.2578    0.0000 N   0  0
    3.8933   -3.7570    0.0000 C   0  0
    2.5951   -3.0039    0.0000 C   0  0
    2.5973   -1.5031    0.0000 C   0  0
    1.2990   -0.7500    0.0000 C   0  0
    1.2990    0.7500    0.0000 C   0  0
    0.0000    1.5000    0.0000 C   0  0
   -1.2990    0.7500    0.0000 C   0  0
   -2.5981    1.5000    0.0000 F   0  0
   -1.2990   -0.7500    0.0000 C   0  0
    0.0000   -1.5000    0.0000 C   0  0
    5.1894   -6.0109    0.0000 C   0  0
    5.1873   -7.5117    0.0000 C   0  0
    6.4855   -8.2648    0.0000 C   0  0
    6.4855   -9.7648    0.0000 C   0  0
    7.7846  -10.5149    0.0000 C   0  0
    9.0836   -9.7649    0.0000 C   0  0
   10.3818  -10.5180    0.0000 N   0  0
   10.3796  -12.0188    0.0000 N   0  3
   10.3775  -13.5188    0.0000 N   0  5
    9.0836   -8.2649    0.0000 C   0  0
   10.3827   -7.5149    0.0000 I   0  0
    7.7846   -7.5149    0.0000 C   0  0
  1  2  1  0
  2  3  1  0
  3  4  1  0
  4  5  1  0
  5  6  1  0
  6  7  1  0
  7  8  1  0
  8  9  2  0
  9 10  1  0
 10 11  2  0
 11 12  1  0
 11 13  1  0
 13 14  2  0
 14  8  1  0
  4 15  1  0
 15 16  1  0
 16 17  1  0
 17 18  2  0
 18 19  1  0
 19 20  2  0
 20 21  1  0
 21 22  2  0
 22 23  2  0
 20 24  1  0
 24 25  1  0
 24 26  2  0
 26 17  1  0
M  CHG  2  22   1  23  -1
M  END
> <Smiles>
CCCN(CCCc1ccc(F)cc1)CCc1ccc(N=[N+]=[N-])c(I)c1

> <ID>
CHEMBL1163916

> <standard_value>
38800

> <IC50_uM>
38.8

> <Activity>
No

> <pIC50>
4.411168274

> <BCI>
0

$$$$

  SciTegic03012415362D

 23 23  0  0  0  0            999 V2000
   11.6690  -17.2800    0.0000 C   0  0
   10.3716  -16.5273    0.0000 C   0  0
   10.3737  -15.0265    0.0000 C   0  0
    9.0755  -14.2734    0.0000 C   0  0
    9.0776  -12.7726    0.0000 C   0  0
    7.7794  -12.0195    0.0000 C   0  0
    7.7815  -10.5187    0.0000 C   0  0
    6.4833   -9.7656    0.0000 C   0  0
    6.4855   -8.2648    0.0000 C   0  0
    5.1873   -7.5117    0.0000 C   0  0
    5.1894   -6.0109    0.0000 C   0  0
    3.8912   -5.2578    0.0000 C   0  0
    3.8933   -3.7570    0.0000 C   0  0
    2.5951   -3.0039    0.0000 C   0  0
    2.5973   -1.5031    0.0000 C   0  0
    1.2990   -0.7500    0.0000 C   0  0
    1.2990    0.7500    0.0000 C   0  0
    0.0000    1.5000    0.0000 C   0  0
    0.0000    3.0000    0.0000 O   0  0
   -1.2990    0.7500    0.0000 C   0  0
   -1.2990   -0.7500    0.0000 C   0  0
   -2.5981   -1.5000    0.0000 O   0  0
    0.0000   -1.5000    0.0000 C   0  0
  1  2  1  0
  2  3  1  0
  3  4  1  0
  4  5  1  0
  5  6  1  0
  6  7  1  0
  7  8  1  0
  8  9  1  0
  9 10  1  0
 10 11  1  0
 11 12  1  0
 12 13  1  0
 13 14  1  0
 14 15  1  0
 15 16  1  0
 16 17  2  0
 17 18  1  0
 18 19  1  0
 18 20  2  0
 20 21  1  0
 21 22  1  0
 21 23  2  0
 23 16  1  0
M  END
> <Smiles>
CCCCCCCCCCCCCCCc1cc(O)cc(O)c1

> <ID>
CHEMBL98610

> <standard_value>
39800

> <IC50_uM>
39.8

> <Activity>
No

> <pIC50>
4.400116928

> <BCI>
0

$$$$

  SciTegic03012415362D

 22 22  0  0  0  0            999 V2000
    6.4897   -5.2632    0.0000 C   0  0
    5.1894   -6.0109    0.0000 S   0  3
    3.8912   -5.2578    0.0000 C   0  0
    3.8933   -3.7570    0.0000 C   0  0
    2.5951   -3.0039    0.0000 C   0  0
    2.5973   -1.5031    0.0000 C   0  0
    1.2990   -0.7500    0.0000 C   0  0
    1.2990    0.7500    0.0000 C   0  0
    0.0000    1.5000    0.0000 C   0  0
   -1.2990    0.7500    0.0000 C   0  0
   -1.2990   -0.7500    0.0000 C   0  0
    0.0000   -1.5000    0.0000 C   0  0
    5.1873   -7.5117    0.0000 C   0  0
    6.4855   -8.2648    0.0000 C   0  0  3  0  0  0
    6.4833   -9.7656    0.0000 P   0  0
    7.7808  -10.5183    0.0000 O   0  0
    6.4805  -11.2656    0.0000 O   0  5
    5.1830  -10.5134    0.0000 O   0  0
    7.7850   -7.5140    0.0000 P   0  0
    7.7855   -6.0140    0.0000 O   0  0
    9.0842   -6.7642    0.0000 O   0  0
    9.0840   -8.2640    0.0000 O   0  0
  1  2  1  0
  2  3  1  0
  3  4  1  0
  4  5  1  0
  5  6  1  0
  6  7  1  0
  7  8  2  0
  8  9  1  0
  9 10  2  0
 10 11  1  0
 11 12  2  0
 12  7  1  0
  2 13  1  0
 14 13  1  4
 14 15  1  0
 15 16  2  0
 15 17  1  0
 15 18  1  0
 14 19  1  0
 19 20  2  0
 19 21  1  0
 19 22  1  0
M  CHG  2   2   1  17  -1
M  END
> <Smiles>
C[S+](CCCCc1ccccc1)CC(P(=O)([O-])O)P(=O)(O)O

> <ID>
CHEMBL235537

> <standard_value>
39810.72

> <IC50_uM>
39.81072

> <Activity>
No

> <pIC50>
4.399999968

> <BCI>
0

$$$$

  SciTegic03012415362D

 18 18  0  0  1  0            999 V2000
    7.7996   -1.4883    0.0000 C   0  0
    6.4990   -0.7409    0.0000 C   0  0
    5.2003   -1.4932    0.0000 C   0  0
    3.8990   -0.7455    0.0000 C   0  0
    2.6003   -1.4977    0.0000 C   0  0
    1.2990   -0.7500    0.0000 C   0  0  1  0  0  0
    1.2990    0.7500    0.0000 C   0  0
    0.0000    1.5000    0.0000 C   0  0
   -1.2990    0.7500    0.0000 C   0  0
   -2.5981    1.5000    0.0000 O   0  0
   -1.2990   -0.7500    0.0000 C   0  0  2  0  0  0
   -2.5981   -1.5000    0.0000 O   0  0
    0.0000   -1.5000    0.0000 C   0  0  1  0  0  0
   -0.0031   -3.0008    0.0000 C   0  0
    1.2947   -3.7531    0.0000 O   0  0
   -1.3039   -3.7494    0.0000 C   0  0  3  0  0  0
   -2.6016   -2.9971    0.0000 C   0  0
   -1.3070   -5.2494    0.0000 O   0  0
  1  2  1  0
  2  3  1  0
  3  4  1  0
  4  5  2  0
  6  5  1  6
  6  7  1  0
  7  8  2  0
  8  9  1  0
  9 10  2  0
  9 11  1  0
 11 12  1  1
 11 13  1  0
 13  6  1  0
 13 14  1  6
 14 15  2  0
 14 16  1  0
 16 17  1  4
 16 18  1  0
M  END
> <Smiles>
CCC/C=C/[C@H]1C=CC(=O)[C@H](O)[C@H]1C(=O)C(C)O

> <ID>
CHEMBL4588241

> <standard_value>
40500

> <IC50_uM>
40.5

> <Activity>
No

> <pIC50>
4.392544977

> <BCI>
0

$$$$

  SciTegic03012415362D

 22 24  0  0  1  0            999 V2000
    2.5981   -1.5000    0.0000 N   0  0
    1.2990   -0.7500    0.0000 C   0  0
    1.2990    0.7500    0.0000 N   0  0
    0.0000    1.5000    0.0000 C   0  0
    0.0000    3.0000    0.0000 O   0  0
   -1.2990    0.7500    0.0000 C   0  0
   -2.7248    1.2135    0.0000 N   0  0
   -3.6065    0.0000    0.0000 C   0  0
   -2.7248   -1.2135    0.0000 N   0  0
   -3.1904   -2.6376    0.0000 C   0  0
   -4.6588   -2.9478    0.0000 C   0  0  1  0  0  0
   -5.7489   -1.9360    0.0000 O   0  0
   -7.0504   -2.6817    0.0000 C   0  0  1  0  0  0
   -8.4171   -2.0678    0.0000 P   0  0
   -8.5699   -0.5756    0.0000 O   0  0
   -9.6332   -2.9459    0.0000 O   0  0
   -9.7857   -1.4539    0.0000 O   0  0
   -6.7433   -4.1499    0.0000 C   0  0
   -5.2521   -4.3116    0.0000 C   0  0  1  0  0  0
   -4.4986   -5.6087    0.0000 F   0  0
   -1.2990   -0.7500    0.0000 C   0  0
    0.0000   -1.5000    0.0000 N   0  0
  1  2  1  0
  2  3  2  0
  3  4  1  0
  4  5  1  0
  4  6  2  0
  6  7  1  0
  7  8  2  0
  8  9  1  0
  9 10  1  0
 11 10  1  6
 11 12  1  0
 12 13  1  0
 13 14  1  6
 14 15  2  0
 14 16  1  0
 14 17  1  0
 13 18  1  0
 18 19  1  0
 19 11  1  0
 19 20  1  6
  9 21  1  0
 21  6  1  0
 21 22  2  0
 22  2  1  0
M  END
> <Smiles>
N.Nc1nc(O)c2ncn(C[C@H]3O[C@@H](P(=O)(O)O)C[C@H]3F)c2n1

> <ID>
CHEMBL431428

> <standard_value>
44000

> <IC50_uM>
44

> <Activity>
No

> <pIC50>
4.356547324

> <BCI>
0

> <RemovedSalts>
NH3

$$$$

  SciTegic03012415362D

 17 17  0  0  0  0            999 V2000
    2.5981   -1.5000    0.0000 C   0  0
    1.2990   -0.7500    0.0000 C   0  0
    1.2990    0.7500    0.0000 C   0  0
    0.0000    1.5000    0.0000 C   0  0
   -1.2990    0.7500    0.0000 C   0  0
   -1.2990   -0.7500    0.0000 N   0  3
   -2.5972   -1.5031    0.0000 C   0  0
   -2.5951   -3.0039    0.0000 C   0  0  3  0  0  0
   -3.8933   -3.7570    0.0000 P   0  0
   -3.8912   -5.2570    0.0000 O   0  0
   -5.1937   -3.0093    0.0000 O   0  5
   -5.1912   -4.5091    0.0000 O   0  0
   -1.2925   -3.7494    0.0000 P   0  0
    0.0042   -2.9953    0.0000 O   0  0
    0.0090   -4.4951    0.0000 O   0  0
   -1.2873   -5.2494    0.0000 O   0  0
    0.0000   -1.5000    0.0000 C   0  0
  1  2  1  0
  2  3  2  0
  3  4  1  0
  4  5  2  0
  5  6  1  0
  6  7  1  0
  8  7  1  4
  8  9  1  0
  9 10  2  0
  9 11  1  0
  9 12  1  0
  8 13  1  0
 13 14  2  0
 13 15  1  0
 13 16  1  0
  6 17  2  0
 17  2  1  0
M  CHG  2   6   1  11  -1
M  END
> <Smiles>
Cc1ccc[n+](CC(P(=O)([O-])O)P(=O)(O)O)c1

> <ID>
CHEMBL213343

> <standard_value>
44600

> <IC50_uM>
44.6

> <Activity>
No

> <pIC50>
4.350665141

> <BCI>
0

$$$$

  SciTegic03012415362D

 26 28  0  0  0  0            999 V2000
    2.6030   -2.9977    0.0000 C   0  0
    2.6003   -1.4977    0.0000 C   0  0
    3.8990   -0.7455    0.0000 C   0  0
    5.2007   -1.4909    0.0000 C   0  0
    6.4972   -0.7364    0.0000 C   0  0
    6.4920    0.7636    0.0000 C   0  0
    7.7876    1.5211    0.0000 C   0  0
    7.7802    3.0211    0.0000 O   0  0
    9.0905    0.7779    0.0000 O   0  0
    5.1903    1.5091    0.0000 C   0  0
    3.8939    0.7546    0.0000 C   0  0
    1.2990   -0.7500    0.0000 C   0  0
    1.2990    0.7500    0.0000 C   0  0
    0.0000    1.5000    0.0000 C   0  0
   -1.2990    0.7500    0.0000 C   0  0
   -1.2990   -0.7500    0.0000 C   0  0
    0.0000   -1.5000    0.0000 C   0  0
    0.0000   -3.0000    0.0000 C   0  0
   -2.5981    1.5000    0.0000 C   0  0
   -2.5627    0.0004    0.0000 C   0  0
   -3.8792    2.2803    0.0000 C   0  0
   -2.5981    3.0000    0.0000 C   0  0
   -1.2991    3.7500    0.0000 C   0  0
    0.0000    3.0000    0.0000 C   0  0
    1.2810    2.2196    0.0000 C   0  0
   -0.0353    4.4996    0.0000 C   0  0
  1  2  2  0
  2  3  1  0
  3  4  2  0
  4  5  1  0
  5  6  2  0
  6  7  1  0
  7  8  2  0
  7  9  1  0
  6 10  1  0
 10 11  2  0
 11  3  1  0
  2 12  1  0
 12 13  2  0
 13 14  1  0
 14 15  2  0
 15 16  1  0
 16 17  2  0
 17 12  1  0
 17 18  1  0
 15 19  1  0
 19 20  1  0
 19 21  1  0
 19 22  1  0
 22 23  1  0
 23 24  1  0
 24 14  1  0
 24 25  1  0
 24 26  1  0
M  END
> <Smiles>
C=C(c1ccc(C(=O)O)cc1)c1cc2c(cc1C)C(C)(C)CCC2(C)C

> <ID>
CHEMBL1023

> <standard_value>
44636.41

> <IC50_uM>
44.63641

> <Activity>
No

> <pIC50>
4.350310742

> <BCI>
0

$$$$

  SciTegic03012415362D

 30 32  0  0  0  0            999 V2000
    4.7562   -5.7596    0.0000 O   0  0
    3.8912   -5.2578    0.0000 P   0  0
    2.5909   -6.0056    0.0000 O   0  0
    3.8883   -6.7578    0.0000 O   0  0
    3.8933   -3.7570    0.0000 C   0  0
    5.1937   -3.0093    0.0000 O   0  0
    2.5951   -3.0039    0.0000 C   0  0
    2.5973   -1.5031    0.0000 C   0  0
    1.2990   -0.7500    0.0000 C   0  0
    1.2990    0.7500    0.0000 C   0  0
    0.0000    1.5000    0.0000 C   0  0
   -1.2990    0.7500    0.0000 C   0  0
   -1.2990   -0.7500    0.0000 C   0  0
   -2.5987   -1.5004    0.0000 C   0  0
   -3.8991   -0.7525    0.0000 C   0  0
   -5.1969   -1.5046    0.0000 C   0  0
   -5.1945   -3.0046    0.0000 C   0  0
   -3.8943   -3.7525    0.0000 C   0  0
   -3.8919   -5.2533    0.0000 C   0  0
   -5.1885   -6.0075    0.0000 C   0  0
   -5.1838   -7.5075    0.0000 C   0  0
   -3.8824   -8.2534    0.0000 C   0  0
   -2.5857   -7.4992    0.0000 C   0  0
   -2.5905   -5.9992    0.0000 C   0  0
   -2.5964   -3.0004    0.0000 C   0  0
    0.0000   -1.5000    0.0000 C   0  0
    5.2181   -4.5224    0.0000 P   0  0
    6.5178   -3.7736    0.0000 O   0  0
    6.5165   -5.2734    0.0000 O   0  0
    5.2174   -5.5224    0.0000 O   0  0
  1  2  2  0
  2  3  1  0
  2  4  1  0
  2  5  1  0
  5  6  1  0
  5  7  1  0
  7  8  1  0
  8  9  1  0
  9 10  2  0
 10 11  1  0
 11 12  2  0
 12 13  1  0
 13 14  1  0
 14 15  2  0
 15 16  1  0
 16 17  2  0
 17 18  1  0
 18 19  1  0
 19 20  2  0
 20 21  1  0
 21 22  2  0
 22 23  1  0
 23 24  2  0
 24 19  1  0
 18 25  2  0
 25 14  1  0
 13 26  2  0
 26  9  1  0
  5 27  1  0
 27 28  2  0
 27 29  1  0
 27 30  1  0
M  END
> <Smiles>
O=P(O)(O)C(O)(CCc1cccc(-c2cccc(-c3ccccc3)c2)c1)P(=O)(O)O

> <ID>
CHEMBL385291

> <standard_value>
44700

> <IC50_uM>
44.7

> <Activity>
No

> <pIC50>
4.349692477

> <BCI>
0

$$$$

  SciTegic03012415362D

 18 18  0  0  0  0            999 V2000
    2.5951   -3.0031    0.0000 C   0  0
    2.5973   -1.5031    0.0000 C   0  0
    1.2990   -0.7500    0.0000 C   0  0
    1.2990    0.7500    0.0000 C   0  0
    0.0000    1.5000    0.0000 C   0  0
   -1.2990    0.7500    0.0000 C   0  0
   -1.2990   -0.7500    0.0000 N   0  3
   -2.5972   -1.5031    0.0000 C   0  0
   -2.5951   -3.0039    0.0000 C   0  0  3  0  0  0
   -3.8933   -3.7570    0.0000 P   0  0
   -3.8912   -5.2570    0.0000 O   0  0
   -5.1937   -3.0093    0.0000 O   0  5
   -5.1912   -4.5091    0.0000 O   0  0
   -1.2925   -3.7494    0.0000 P   0  0
    0.0042   -2.9953    0.0000 O   0  0
    0.0090   -4.4951    0.0000 O   0  0
   -1.2873   -5.2494    0.0000 O   0  0
    0.0000   -1.5000    0.0000 C   0  0
  1  2  1  0
  2  3  1  0
  3  4  2  0
  4  5  1  0
  5  6  2  0
  6  7  1  0
  7  8  1  0
  9  8  1  4
  9 10  1  0
 10 11  2  0
 10 12  1  0
 10 13  1  0
  9 14  1  0
 14 15  2  0
 14 16  1  0
 14 17  1  0
  7 18  2  0
 18  3  1  0
M  CHG  2   7   1  12  -1
M  END
> <Smiles>
CCc1ccc[n+](CC(P(=O)([O-])O)P(=O)(O)O)c1

> <ID>
CHEMBL384601

> <standard_value>
44800

> <IC50_uM>
44.8

> <Activity>
No

> <pIC50>
4.348721986

> <BCI>
0

$$$$

  SciTegic03012415362D

 23 26  0  0  0  0            999 V2000
    5.3772   -1.1986    0.0000 C   0  0
    4.8683   -2.6096    0.0000 C   0  0
    5.8362   -3.7556    0.0000 O   0  0
    3.3910   -2.8741    0.0000 C   0  0
    2.4133   -1.7530    0.0000 C   0  0  3  0  0  0
    2.8541   -0.3192    0.0000 O   0  0
    1.2990   -0.7500    0.0000 C   0  0
    1.2990    0.7500    0.0000 C   0  0
    0.0000    1.5000    0.0000 C   0  0
   -1.2990    0.7500    0.0000 C   0  0
   -1.2990   -0.7500    0.0000 C   0  0
    0.0000   -1.5000    0.0000 C   0  0
    0.3114   -2.9665    0.0000 N   0  0
    1.8032   -3.1233    0.0000 C   0  0
    2.4135   -4.4923    0.0000 N   0  0
    1.5318   -5.7059    0.0000 C   0  0
    2.1419   -7.0762    0.0000 C   0  0
    1.2602   -8.2897    0.0000 C   0  0
   -0.2316   -8.1329    0.0000 C   0  0
   -0.8417   -6.7626    0.0000 C   0  0
    0.0400   -5.5491    0.0000 C   0  0
   -0.5701   -4.1788    0.0000 C   0  0
   -2.0618   -4.0217    0.0000 O   0  0
  1  2  1  0
  2  3  2  0
  2  4  1  0
  4  5  1  0
  5  6  1  4
  5  7  1  0
  7  8  2  0
  8  9  1  0
  9 10  2  0
 10 11  1  0
 11 12  2  0
 12  7  1  0
 12 13  1  0
 13 14  1  0
 14  5  1  0
 14 15  2  0
 15 16  1  0
 16 17  2  0
 17 18  1  0
 18 19  2  0
 19 20  1  0
 20 21  2  0
 21 16  1  0
 21 22  1  0
 22 13  1  0
 22 23  2  0
M  END
> <Smiles>
CC(=O)CC1(O)c2ccccc2-n2c1nc1ccccc1c2=O

> <ID>
CHEMBL508897

> <standard_value>
45400

> <IC50_uM>
45.4

> <Activity>
No

> <pIC50>
4.342944147

> <BCI>
0

$$$$

  SciTegic03012415362D

 19 19  0  0  0  0            999 V2000
   -7.7853   -3.0179    0.0000 C   0  0
   -7.7917   -1.5179    0.0000 C   0  0
   -6.4957   -0.7611    0.0000 C   0  0
   -6.4999    0.7389    0.0000 C   0  0
   -5.2031    1.4926    0.0000 C   0  0
   -3.9019    0.7463    0.0000 C   0  0
   -3.8976   -0.7537    0.0000 N   0  3
   -2.5972   -1.5031    0.0000 C   0  0
   -2.5951   -3.0039    0.0000 C   0  0  3  0  0  0
   -1.2948   -3.7517    0.0000 O   0  0
   -3.8933   -3.7570    0.0000 P   0  0
   -3.8912   -5.2570    0.0000 O   0  0
   -5.1912   -4.5091    0.0000 O   0  5
   -5.1937   -3.0093    0.0000 O   0  0
   -1.2704   -2.2385    0.0000 P   0  0
    0.0294   -2.9873    0.0000 O   0  0
    0.0281   -1.4875    0.0000 O   0  0
   -1.2713   -0.7385    0.0000 O   0  0
   -5.1945   -1.5074    0.0000 C   0  0
  1  2  1  0
  2  3  1  0
  3  4  2  0
  4  5  1  0
  5  6  2  0
  6  7  1  0
  7  8  1  0
  8  9  1  0
  9 10  1  4
  9 11  1  0
 11 12  2  0
 11 13  1  0
 11 14  1  0
  9 15  1  0
 15 16  2  0
 15 17  1  0
 15 18  1  0
  7 19  2  0
 19  3  1  0
M  CHG  2   7   1  13  -1
M  END
> <Smiles>
CCc1ccc[n+](CC(O)(P(=O)([O-])O)P(=O)(O)O)c1

> <ID>
CHEMBL192043

> <standard_value>
45800

> <IC50_uM>
45.8

> <Activity>
No

> <pIC50>
4.339134522

> <BCI>
0

$$$$

  SciTegic03012415362D

 17 17  0  0  0  0            999 V2000
    3.8919   -4.7570    0.0000 O   0  0
    3.8933   -3.7570    0.0000 P   0  0
    5.1937   -3.0093    0.0000 O   0  5
    5.1912   -4.5090    0.0000 O   0  0
    2.5951   -3.0039    0.0000 C   0  0  3  0  0  0
    1.2948   -3.7516    0.0000 O   0  0
    2.5973   -1.5031    0.0000 C   0  0
    1.2990   -0.7500    0.0000 N   0  3
    1.2990    0.7500    0.0000 C   0  0
    0.0000    1.5000    0.0000 C   0  0
   -1.2990    0.7500    0.0000 C   0  0
   -1.2990   -0.7500    0.0000 C   0  0
    0.0000   -1.5000    0.0000 C   0  0
    2.5903   -4.5339    0.0000 P   0  0
    1.2893   -5.2805    0.0000 O   0  0
    2.5862   -6.0339    0.0000 O   0  0
    3.4549   -5.0363    0.0000 O   0  0
  1  2  2  0
  2  3  1  0
  2  4  1  0
  2  5  1  0
  5  6  1  4
  5  7  1  0
  7  8  1  0
  8  9  2  0
  9 10  1  0
 10 11  2  0
 11 12  1  0
 12 13  2  0
 13  8  1  0
  5 14  1  0
 14 15  2  0
 14 16  1  0
 14 17  1  0
M  CHG  2   3  -1   8   1
M  END
> <Smiles>
O=P([O-])(O)C(O)(C[n+]1ccccc1)P(=O)(O)O

> <ID>
CHEMBL191634

> <standard_value>
46800

> <IC50_uM>
46.8

> <Activity>
No

> <pIC50>
4.329754147

> <BCI>
0

$$$$

  SciTegic03012415362D

 21 20  0  0  1  0            999 V2000
    0.0007    0.0004    0.0000 C   0  0
    1.3000    0.7500    0.0000 C   0  0
    2.6000    0.0000    0.0000 C   0  0
    3.9000    0.7500    0.0000 C   0  0
    5.2000    0.0000    0.0000 C   0  0
    6.5000    0.7500    0.0000 C   0  0
    7.7999    0.0000    0.0000 C   0  0
    9.0999    0.7500    0.0000 C   0  0
   10.3999    0.0000    0.0000 C   0  0
   11.6999    0.7500    0.0000 C   0  0
   12.9999    0.0000    0.0000 C   0  0
   14.2999    0.7500    0.0000 C   0  0  2  0  0  0
   14.2999    2.2500    0.0000 O   0  0
   15.5999    0.0000    0.0000 C   0  0
   16.8999    0.7500    0.0000 C   0  0
   18.1999    0.0000    0.0000 C   0  0
   19.4998    0.7500    0.0000 C   0  0
   20.7998    0.0000    0.0000 C   0  0
   22.0998    0.7500    0.0000 C   0  0
   23.3991    0.0004    0.0000 O   0  0
   22.0998    2.2500    0.0000 O   0  0
  1  2  1  0
  2  3  1  0
  3  4  1  0
  4  5  1  0
  5  6  1  0
  6  7  1  0
  7  8  1  0
  8  9  1  0
  9 10  1  0
 10 11  1  0
 11 12  1  0
 12 13  1  6
 12 14  1  0
 14 15  1  0
 15 16  1  0
 16 17  1  0
 17 18  1  0
 18 19  1  0
 19 20  2  0
 19 21  1  0
M  END
> <Smiles>
CCCCCCCCCCC[C@H](O)CCCCCC(=O)O

> <ID>
CHEMBL4794262

> <standard_value>
47000

> <IC50_uM>
47

> <Activity>
No

> <pIC50>
4.327902142

> <BCI>
0

$$$$

  SciTegic03012415362D

 24 25  0  0  0  0            999 V2000
    3.8919   -4.7570    0.0000 O   0  0
    3.8933   -3.7570    0.0000 P   0  0
    5.1937   -3.0093    0.0000 O   0  0
    5.1912   -4.5090    0.0000 O   0  0
    2.5951   -3.0039    0.0000 C   0  0
    1.2948   -3.7516    0.0000 O   0  0
    2.5973   -1.5031    0.0000 C   0  0
    1.2990   -0.7500    0.0000 C   0  0
    1.2990    0.7500    0.0000 C   0  0
    0.0000    1.5000    0.0000 C   0  0
   -1.2990    0.7500    0.0000 C   0  0
   -1.2990   -0.7500    0.0000 C   0  0
   -2.5987   -1.5004    0.0000 C   0  0
   -3.8991   -0.7525    0.0000 C   0  0
   -5.1969   -1.5046    0.0000 C   0  0
   -5.1945   -3.0046    0.0000 C   0  0
   -6.4924   -3.7566    0.0000 Cl  0  0
   -3.8943   -3.7525    0.0000 C   0  0
   -2.5964   -3.0004    0.0000 C   0  0
    0.0000   -1.5000    0.0000 C   0  0
    2.5903   -4.5339    0.0000 P   0  0
    1.2893   -5.2805    0.0000 O   0  0
    2.5862   -6.0339    0.0000 O   0  0
    3.4549   -5.0363    0.0000 O   0  0
  1  2  2  0
  2  3  1  0
  2  4  1  0
  2  5  1  0
  5  6  1  0
  5  7  1  0
  7  8  1  0
  8  9  2  0
  9 10  1  0
 10 11  2  0
 11 12  1  0
 12 13  1  0
 13 14  2  0
 14 15  1  0
 15 16  2  0
 16 17  1  0
 16 18  1  0
 18 19  2  0
 19 13  1  0
 12 20  2  0
 20  8  1  0
  5 21  1  0
 21 22  2  0
 21 23  1  0
 21 24  1  0
M  END
> <Smiles>
O=P(O)(O)C(O)(Cc1cccc(-c2ccc(Cl)cc2)c1)P(=O)(O)O

> <ID>
CHEMBL194213

> <standard_value>
48000

> <IC50_uM>
48

> <Activity>
No

> <pIC50>
4.318758763

> <BCI>
0

$$$$

  SciTegic03012415362D

 21 21  0  0  0  0            999 V2000
    2.5909   -6.0056    0.0000 C   0  0
    3.8912   -5.2578    0.0000 S   0  3
    3.8933   -3.7570    0.0000 C   0  0
    2.5951   -3.0039    0.0000 C   0  0
    2.5973   -1.5031    0.0000 C   0  0
    1.2990   -0.7500    0.0000 C   0  0
    1.2990    0.7500    0.0000 C   0  0
    0.0000    1.5000    0.0000 C   0  0
   -1.2990    0.7500    0.0000 C   0  0
   -1.2990   -0.7500    0.0000 C   0  0
    0.0000   -1.5000    0.0000 C   0  0
    5.1894   -6.0109    0.0000 C   0  0
    5.1873   -7.5117    0.0000 C   0  0  3  0  0  0
    6.4855   -8.2648    0.0000 P   0  0
    6.4833   -9.7648    0.0000 O   0  0
    7.7833   -9.0169    0.0000 O   0  5
    7.7858   -7.5171    0.0000 O   0  0
    3.8847   -8.2572    0.0000 P   0  0
    2.5880   -7.5031    0.0000 O   0  0
    2.5831   -9.0029    0.0000 O   0  0
    3.8794   -9.7572    0.0000 O   0  0
  1  2  1  0
  2  3  1  0
  3  4  1  0
  4  5  1  0
  5  6  1  0
  6  7  2  0
  7  8  1  0
  8  9  2  0
  9 10  1  0
 10 11  2  0
 11  6  1  0
  2 12  1  0
 13 12  1  4
 13 14  1  0
 14 15  2  0
 14 16  1  0
 14 17  1  0
 13 18  1  0
 18 19  2  0
 18 20  1  0
 18 21  1  0
M  CHG  2   2   1  16  -1
M  END
> <Smiles>
C[S+](CCCc1ccccc1)CC(P(=O)([O-])O)P(=O)(O)O

> <ID>
CHEMBL277582

> <standard_value>
48600

> <IC50_uM>
48.6

> <Activity>
No

> <pIC50>
4.313363731

> <BCI>
0

$$$$

  SciTegic03012415362D

 24 27  0  0  0  0            999 V2000
    5.2311   -3.4009    0.0000 O   0  0
    3.8056   -3.8679    0.0000 C   0  0
    3.3372   -5.2929    0.0000 N   0  0
    1.8372   -5.2877    0.0000 C   0  0
    0.9498   -6.4949    0.0000 N   0  0
   -0.5420   -6.3307    0.0000 C   0  0
   -1.4309   -7.5400    0.0000 C   0  0
   -2.9180   -7.5171    0.0000 C   0  0
   -3.3865   -8.9421    0.0000 C   0  0
   -2.1761   -9.8280    0.0000 C   0  0
   -0.9594   -8.9505    0.0000 S   0  0
    1.3786   -3.8595    0.0000 S   0  0
    2.5951   -3.0039    0.0000 C   0  0
    2.5973   -1.5031    0.0000 C   0  0
    1.2990   -0.7500    0.0000 C   0  0
    1.2990    0.7500    0.0000 C   0  0
    0.0000    1.5000    0.0000 C   0  0
   -1.2990    0.7500    0.0000 C   0  0
   -2.5981    1.5000    0.0000 N   0  0
   -3.8971    0.7500    0.0000 C   0  0
   -3.8971   -0.7500    0.0000 C   0  0
   -2.5981   -1.5000    0.0000 C   0  0
   -1.2990   -0.7500    0.0000 C   0  0
    0.0000   -1.5000    0.0000 C   0  0
  1  2  2  0
  2  3  1  0
  3  4  2  0
  4  5  1  0
  5  6  1  0
  6  7  1  0
  7  8  2  0
  8  9  1  0
  9 10  2  0
 10 11  1  0
 11  7  1  0
  4 12  1  0
 12 13  1  0
 13  2  1  0
 13 14  2  0
 14 15  1  0
 15 16  2  0
 16 17  1  0
 17 18  2  0
 18 19  1  0
 19 20  2  0
 20 21  1  0
 21 22  2  0
 22 23  1  0
 23 18  1  0
 23 24  2  0
 24 15  1  0
M  END
> <Smiles>
O=C1N=C(NCc2cccs2)S/C1=C\c1ccc2ncccc2c1

> <ID>
CHEMBL393929

> <standard_value>
48618.88

> <IC50_uM>
48.61888

> <Activity>
No

> <pIC50>
4.31319505

> <BCI>
0

$$$$

  SciTegic03012415362D

 24 24  0  0  0  0            999 V2000
    6.4897   -5.2632    0.0000 C   0  0
    5.1894   -6.0109    0.0000 N   0  0
    3.8912   -5.2578    0.0000 C   0  0
    3.8933   -3.7570    0.0000 C   0  0
    2.5951   -3.0039    0.0000 C   0  0
    2.5973   -1.5031    0.0000 C   0  0
    1.2990   -0.7500    0.0000 C   0  0
    1.2990    0.7500    0.0000 C   0  0
    0.0000    1.5000    0.0000 C   0  0
   -1.2990    0.7500    0.0000 C   0  0
   -1.2990   -0.7500    0.0000 C   0  0
    0.0000   -1.5000    0.0000 C   0  0
    5.1873   -7.5117    0.0000 C   0  0
    6.4855   -8.2648    0.0000 C   0  0
    6.4833   -9.7656    0.0000 C   0  0
    7.7837   -9.0179    0.0000 O   0  0
    7.7815  -10.5187    0.0000 P   0  0
    7.7794  -12.0187    0.0000 O   0  0
    9.0819   -9.7710    0.0000 O   0  0
    9.0794  -11.2708    0.0000 O   0  0
    5.1823  -10.5137    0.0000 P   0  0
    3.8841   -9.7623    0.0000 O   0  0
    3.8824  -11.2621    0.0000 O   0  0
    5.1802  -12.0137    0.0000 O   0  0
  1  2  1  0
  2  3  1  0
  3  4  1  0
  4  5  1  0
  5  6  1  0
  6  7  1  0
  7  8  2  0
  8  9  1  0
  9 10  2  0
 10 11  1  0
 11 12  2  0
 12  7  1  0
  2 13  1  0
 13 14  1  0
 14 15  1  0
 15 16  1  0
 15 17  1  0
 17 18  2  0
 17 19  1  0
 17 20  1  0
 15 21  1  0
 21 22  2  0
 21 23  1  0
 21 24  1  0
M  END
> <Smiles>
CN(CCCCc1ccccc1)CCC(O)(P(=O)(O)O)P(=O)(O)O

> <ID>
CHEMBL56073

> <standard_value>
49200

> <IC50_uM>
49.2

> <Activity>
No

> <pIC50>
4.308034897

> <BCI>
0

$$$$

  SciTegic03012415362D

 18 18  0  0  0  0            999 V2000
    3.8919   -4.7570    0.0000 O   0  0
    3.8933   -3.7570    0.0000 P   0  0
    5.1937   -3.0093    0.0000 O   0  5
    5.1912   -4.5090    0.0000 O   0  0
    2.5951   -3.0039    0.0000 C   0  0  3  0  0  0
    1.2948   -3.7516    0.0000 O   0  0
    2.5973   -1.5031    0.0000 C   0  0
    1.2990   -0.7500    0.0000 N   0  3
    1.2990    0.7500    0.0000 C   0  0
    0.0000    1.5000    0.0000 C   0  0
   -1.2990    0.7500    0.0000 C   0  0
   -1.2990   -0.7500    0.0000 C   0  0
   -2.5981   -1.5000    0.0000 F   0  0
    0.0000   -1.5000    0.0000 C   0  0
    2.5903   -4.5339    0.0000 P   0  0
    1.2893   -5.2805    0.0000 O   0  0
    2.5862   -6.0339    0.0000 O   0  0
    3.4549   -5.0363    0.0000 O   0  0
  1  2  2  0
  2  3  1  0
  2  4  1  0
  2  5  1  0
  5  6  1  4
  5  7  1  0
  7  8  1  0
  8  9  2  0
  9 10  1  0
 10 11  2  0
 11 12  1  0
 12 13  1  0
 12 14  2  0
 14  8  1  0
  5 15  1  0
 15 16  2  0
 15 17  1  0
 15 18  1  0
M  CHG  2   3  -1   8   1
M  END
> <Smiles>
O=P([O-])(O)C(O)(C[n+]1cccc(F)c1)P(=O)(O)O

> <ID>
CHEMBL193722

> <standard_value>
49300

> <IC50_uM>
49.3

> <Activity>
No

> <pIC50>
4.307153081

> <BCI>
0

$$$$

  SciTegic03012415362D

 18 18  0  0  0  0            999 V2000
   -7.7926   -1.5148    0.0000 C   0  0
   -6.4957   -0.7611    0.0000 C   0  0
   -6.4999    0.7389    0.0000 C   0  0
   -5.2031    1.4926    0.0000 C   0  0
   -3.9019    0.7463    0.0000 C   0  0
   -3.8976   -0.7537    0.0000 N   0  3
   -2.5972   -1.5031    0.0000 C   0  0
   -2.5951   -3.0039    0.0000 C   0  0  3  0  0  0
   -1.2948   -3.7517    0.0000 O   0  0
   -3.8933   -3.7570    0.0000 P   0  0
   -3.8912   -5.2570    0.0000 O   0  0
   -5.1912   -4.5091    0.0000 O   0  5
   -5.1937   -3.0093    0.0000 O   0  0
   -1.2704   -2.2385    0.0000 P   0  0
    0.0294   -2.9873    0.0000 O   0  0
    0.0281   -1.4875    0.0000 O   0  0
   -1.2713   -0.7385    0.0000 O   0  0
   -5.1945   -1.5074    0.0000 C   0  0
  1  2  1  0
  2  3  2  0
  3  4  1  0
  4  5  2  0
  5  6  1  0
  6  7  1  0
  7  8  1  0
  8  9  1  4
  8 10  1  0
 10 11  2  0
 10 12  1  0
 10 13  1  0
  8 14  1  0
 14 15  2  0
 14 16  1  0
 14 17  1  0
  6 18  2  0
 18  2  1  0
M  CHG  2   6   1  12  -1
M  END
> <Smiles>
Cc1ccc[n+](CC(O)(P(=O)([O-])O)P(=O)(O)O)c1

> <ID>
CHEMBL193356

> <standard_value>
52600

> <IC50_uM>
52.6

> <Activity>
No

> <pIC50>
4.279014256

> <BCI>
0

$$$$

  SciTegic03012415362D

 30 32  0  0  1  0            999 V2000
    3.5773    3.9079    0.0000 C   0  0
    2.6000    2.7700    0.0000 C   0  0
    3.1100    1.3100    0.0000 C   0  0
    2.1200    0.1500    0.0000 C   0  0  2  0  0  0
    2.6200   -1.2500    0.0000 C   0  0
    4.1500   -1.2500    0.0000 C   0  0
    4.8050    0.0994    0.0000 C   0  0
    5.1500   -2.5200    0.0000 C   0  0
    4.7500   -4.0500    0.0000 C   0  0
    3.3100   -4.6600    0.0000 C   0  0  2  0  0  0
    3.2338   -6.1581    0.0000 O   0  0
    1.8900   -3.8800    0.0000 C   0  0  2  0  0  0
    0.6702   -4.7530    0.0000 O   0  0
    1.6300   -2.4000    0.0000 C   0  0  1  0  0  0
    2.3386   -1.6944    0.0000 O   0  0
    0.1300   -2.1300    0.0000 C   0  0
   -0.3600   -0.6800    0.0000 C   0  0
   -1.8312   -0.3877    0.0000 O   0  0
    0.6100    0.4300    0.0000 C   0  0  2  0  0  0
   -0.7600   -0.1800    0.0000 C   0  0
   -0.9650   -1.6659    0.0000 O   0  0
   -1.9400    0.8000    0.0000 N   0  0
   -1.3600    2.2200    0.0000 C   0  0  1  0  0  0
   -2.0489    3.5483    0.0000 C   0  0
   -3.5482    3.6172    0.0000 C   0  0
   -4.3578    2.3544    0.0000 C   0  0
   -4.2374    4.9495    0.0000 C   0  0
    0.1000    1.8900    0.0000 C   0  0  2  0  0  0
    1.1000    3.0500    0.0000 C   0  0  2  0  0  0
    0.6035    4.4654    0.0000 C   0  0
  1  2  1  0
  2  3  2  0
  4  3  1  6
  4  5  1  0
  5  6  2  0
  6  7  1  0
  6  8  1  0
  8  9  1  0
  9 10  1  0
 10 11  1  6
 10 12  1  0
 12 13  1  6
 12 14  1  0
 14 15  1  6
 14 16  1  0
 16 17  1  0
 17 18  2  0
 19 17  1  1
 19  4  1  0
 19 20  1  0
 20 21  2  0
 20 22  1  0
 22 23  1  0
 23 24  1  1
 24 25  1  0
 25 26  1  0
 25 27  1  0
 28 23  1  6
 28 19  1  0
 28 29  1  0
 29  2  1  0
 29 30  1  6
M  END
> <Smiles>
CC1=C[C@@H]2/C=C(\C)CC[C@H](O)[C@H](O)[C@@H](O)CC(=O)[C@]23C(=O)N[C@@H](CC(C)C)[C@@H]3[C@@H]1C

> <ID>
CHEMBL516341

> <standard_value>
52600

> <IC50_uM>
52.6

> <Activity>
No

> <pIC50>
4.279014256

> <BCI>
0

$$$$

  SciTegic03012415362D

 34 36  0  0  1  0            999 V2000
    2.5876    3.0013    0.0000 N   0  0
    2.5922    1.5013    0.0000 C   0  0
    1.2952    0.7477    0.0000 O   0  0
    3.8944    0.7552    0.0000 C   0  0  1  0  0  0
    5.1921    1.5092    0.0000 C   0  0
    5.1890    3.0100    0.0000 C   0  0
    6.4867    3.7640    0.0000 C   0  0
    6.4835    5.2640    0.0000 F   0  0
    7.7840    4.5169    0.0000 F   0  0
    7.7875    3.0171    0.0000 F   0  0
    3.8990   -0.7455    0.0000 N   0  0
    2.6003   -1.4978    0.0000 C   0  0
    2.6016   -2.9986    0.0000 C   0  0
    3.9028   -3.7449    0.0000 C   0  0
    3.9072   -5.2449    0.0000 C   0  0
    2.6103   -5.9986    0.0000 C   0  0
    2.6146   -7.4994    0.0000 C   0  0
    3.8293   -8.3577    0.0000 N   0  0
    3.3676   -9.7848    0.0000 C   0  0
    1.8676   -9.7868    0.0000 O   0  0
    1.4022   -8.3608    0.0000 N   0  0
    1.3091   -5.2524    0.0000 C   0  0
    1.3048   -3.7524    0.0000 C   0  0
    0.0036   -3.0062    0.0000 F   0  0
    5.2003   -1.4934    0.0000 S   0  0
    3.9026   -2.2458    0.0000 O   0  0
    5.2028   -2.9934    0.0000 O   0  0
    6.4990   -0.7412    0.0000 C   0  0
    7.7991   -1.4895    0.0000 C   0  0
    9.0971   -0.7377    0.0000 C   0  0
    9.0950    0.7623    0.0000 C   0  0
   10.3930    1.5141    0.0000 Cl  0  0
    7.7950    1.5105    0.0000 C   0  0
    6.4969    0.7588    0.0000 C   0  0
  1  2  1  0
  2  3  2  0
  2  4  1  0
  4  5  1  1
  5  6  1  0
  6  7  1  0
  7  8  1  0
  7  9  1  0
  7 10  1  0
  4 11  1  0
 11 12  1  0
 12 13  1  0
 13 14  2  0
 14 15  1  0
 15 16  2  0
 16 17  1  0
 17 18  1  0
 18 19  2  0
 19 20  1  0
 20 21  1  0
 21 17  2  0
 16 22  1  0
 22 23  2  0
 23 13  1  0
 23 24  1  0
 11 25  1  0
 25 26  2  0
 25 27  2  0
 25 28  1  0
 28 29  2  0
 29 30  1  0
 30 31  2  0
 31 32  1  0
 31 33  1  0
 33 34  2  0
 34 28  1  0
M  END
> <Smiles>
NC(=O)[C@@H](CCC(F)(F)F)N(Cc1ccc(-c2ncon2)cc1F)S(=O)(=O)c1ccc(Cl)cc1

> <ID>
CHEMBL1090771

> <standard_value>
53103.4

> <IC50_uM>
53.1034

> <Activity>
No

> <pIC50>
4.274877672

> <BCI>
0

$$$$

  SciTegic03012415362D

 18 18  0  0  0  0            999 V2000
    3.8919   -4.7570    0.0000 O   0  0
    3.8933   -3.7570    0.0000 P   0  0
    5.1937   -3.0093    0.0000 O   0  5
    5.1912   -4.5090    0.0000 O   0  0
    2.5951   -3.0039    0.0000 C   0  0  3  0  0  0
    1.2948   -3.7516    0.0000 O   0  0
    2.5973   -1.5031    0.0000 C   0  0
    1.2990   -0.7500    0.0000 N   0  3
    1.2990    0.7500    0.0000 C   0  0
    0.0000    1.5000    0.0000 C   0  0
   -1.2990    0.7500    0.0000 C   0  0
   -1.2990   -0.7500    0.0000 C   0  0
   -2.5981   -1.5000    0.0000 Br  0  0
    0.0000   -1.5000    0.0000 C   0  0
    2.5903   -4.5339    0.0000 P   0  0
    1.2893   -5.2805    0.0000 O   0  0
    2.5862   -6.0339    0.0000 O   0  0
    3.4549   -5.0363    0.0000 O   0  0
  1  2  2  0
  2  3  1  0
  2  4  1  0
  2  5  1  0
  5  6  1  4
  5  7  1  0
  7  8  1  0
  8  9  2  0
  9 10  1  0
 10 11  2  0
 11 12  1  0
 12 13  1  0
 12 14  2  0
 14  8  1  0
  5 15  1  0
 15 16  2  0
 15 17  1  0
 15 18  1  0
M  CHG  2   3  -1   8   1
M  END
> <Smiles>
O=P([O-])(O)C(O)(C[n+]1cccc(Br)c1)P(=O)(O)O

> <ID>
CHEMBL378354

> <standard_value>
55700

> <IC50_uM>
55.7

> <Activity>
No

> <pIC50>
4.254144805

> <BCI>
0

$$$$

  SciTegic03012415362D

 29 31  0  0  0  0            999 V2000
    3.8919   -4.7570    0.0000 O   0  0
    3.8933   -3.7570    0.0000 P   0  0
    5.1937   -3.0093    0.0000 O   0  0
    5.1912   -4.5090    0.0000 O   0  0
    2.5951   -3.0039    0.0000 C   0  0
    1.2948   -3.7516    0.0000 O   0  0
    2.5973   -1.5031    0.0000 C   0  0
    1.2990   -0.7500    0.0000 C   0  0
    1.2990    0.7500    0.0000 C   0  0
    0.0000    1.5000    0.0000 C   0  0
   -1.2990    0.7500    0.0000 C   0  0
   -1.2990   -0.7500    0.0000 C   0  0
   -2.5987   -1.5004    0.0000 C   0  0
   -2.5964   -3.0004    0.0000 C   0  0
   -3.8943   -3.7525    0.0000 C   0  0
   -5.1945   -3.0046    0.0000 C   0  0
   -5.1969   -1.5046    0.0000 C   0  0
   -3.8990   -0.7525    0.0000 C   0  0
   -3.9015    0.7482    0.0000 C   0  0
   -2.6048    1.5025    0.0000 C   0  0
   -2.6096    3.0025    0.0000 C   0  0
   -3.9110    3.7483    0.0000 C   0  0
   -5.2077    2.9942    0.0000 C   0  0
   -5.2029    1.4942    0.0000 C   0  0
    0.0000   -1.5000    0.0000 C   0  0
    2.5903   -4.5339    0.0000 P   0  0
    1.2893   -5.2805    0.0000 O   0  0
    2.5862   -6.0339    0.0000 O   0  0
    3.4549   -5.0363    0.0000 O   0  0
  1  2  2  0
  2  3  1  0
  2  4  1  0
  2  5  1  0
  5  6  1  0
  5  7  1  0
  7  8  1  0
  8  9  2  0
  9 10  1  0
 10 11  2  0
 11 12  1  0
 12 13  1  0
 13 14  2  0
 14 15  1  0
 15 16  2  0
 16 17  1  0
 17 18  2  0
 18 13  1  0
 18 19  1  0
 19 20  2  0
 20 21  1  0
 21 22  2  0
 22 23  1  0
 23 24  2  0
 24 19  1  0
 12 25  2  0
 25  8  1  0
  5 26  1  0
 26 27  2  0
 26 28  1  0
 26 29  1  0
M  END
> <Smiles>
O=P(O)(O)C(O)(Cc1cccc(-c2ccccc2-c2ccccc2)c1)P(=O)(O)O

> <ID>
CHEMBL215608

> <standard_value>
58000

> <IC50_uM>
58

> <Activity>
No

> <pIC50>
4.236572006

> <BCI>
0

$$$$

  SciTegic03012415362D

 18 18  0  0  0  0            999 V2000
    3.8919   -4.7570    0.0000 O   0  0
    3.8933   -3.7570    0.0000 P   0  0
    5.1937   -3.0093    0.0000 O   0  5
    5.1912   -4.5090    0.0000 O   0  0
    2.5951   -3.0039    0.0000 C   0  0  3  0  0  0
    1.2948   -3.7516    0.0000 O   0  0
    2.5973   -1.5031    0.0000 C   0  0
    1.2990   -0.7500    0.0000 N   0  3
    1.2990    0.7500    0.0000 C   0  0
    0.0000    1.5000    0.0000 C   0  0
   -1.2990    0.7500    0.0000 C   0  0
   -1.2990   -0.7500    0.0000 C   0  0
   -2.5981   -1.5000    0.0000 Cl  0  0
    0.0000   -1.5000    0.0000 C   0  0
    2.5903   -4.5339    0.0000 P   0  0
    1.2893   -5.2805    0.0000 O   0  0
    2.5862   -6.0339    0.0000 O   0  0
    3.4549   -5.0363    0.0000 O   0  0
  1  2  2  0
  2  3  1  0
  2  4  1  0
  2  5  1  0
  5  6  1  4
  5  7  1  0
  7  8  1  0
  8  9  2  0
  9 10  1  0
 10 11  2  0
 11 12  1  0
 12 13  1  0
 12 14  2  0
 14  8  1  0
  5 15  1  0
 15 16  2  0
 15 17  1  0
 15 18  1  0
M  CHG  2   3  -1   8   1
M  END
> <Smiles>
O=P([O-])(O)C(O)(C[n+]1cccc(Cl)c1)P(=O)(O)O

> <ID>
CHEMBL215119

> <standard_value>
58300

> <IC50_uM>
58.3

> <Activity>
No

> <pIC50>
4.234331445

> <BCI>
0

$$$$

  SciTegic03012415362D

 26 29  0  0  0  0            999 V2000
    0.7556   -8.5857    0.0000 C   0  0
    2.2467   -8.7493    0.0000 C   0  0
    3.1336   -7.5417    0.0000 N   0  0
    2.6748   -6.1136    0.0000 C   0  0
    1.2526   -5.6369    0.0000 O   0  0
    3.8912   -5.2578    0.0000 C   0  0
    3.8933   -3.7570    0.0000 C   0  0
    5.1937   -3.0076    0.0000 C   0  0
    6.4919   -3.7590    0.0000 O   0  0
    5.1958   -1.5068    0.0000 N   0  0
    6.4962   -0.7574    0.0000 C   0  0
    6.5004    0.7426    0.0000 C   0  0
    7.8016    1.4889    0.0000 C   0  0
    9.0985    0.7352    0.0000 C   0  0
   10.3997    1.4815    0.0000 N   0  0
   11.6966    0.7278    0.0000 C   0  0
   11.6923   -0.7722    0.0000 C   0  0
   10.3911   -1.5185    0.0000 C   0  0
    9.0942   -0.7648    0.0000 C   0  0
    7.7931   -1.5111    0.0000 C   0  0
    5.1011   -6.1214    0.0000 C   0  0
    6.5693   -5.8144    0.0000 C   0  0
    7.5693   -6.9325    0.0000 C   0  0
    7.1011   -8.3575    0.0000 C   0  0
    5.6328   -8.6645    0.0000 C   0  0
    4.6328   -7.5465    0.0000 C   0  0
  1  2  1  0
  2  3  1  0
  3  4  1  0
  4  5  2  0
  4  6  1  0
  6  7  2  0
  7  8  1  0
  8  9  2  0
  8 10  1  0
 10 11  1  0
 11 12  2  0
 12 13  1  0
 13 14  2  0
 14 15  1  0
 15 16  2  0
 16 17  1  0
 17 18  2  0
 18 19  1  0
 19 14  1  0
 19 20  2  0
 20 11  1  0
  6 21  1  0
 21 22  2  0
 22 23  1  0
 23 24  2  0
 24 25  1  0
 25 26  2  0
 26 21  1  0
 26  3  1  0
M  END
> <Smiles>
CCN1C(=O)/C(=C/C(=O)Nc2ccc3ncccc3c2)c2ccccc21

> <ID>
CHEMBL3422935

> <standard_value>
62500

> <IC50_uM>
62.5

> <Activity>
No

> <pIC50>
4.204119983

> <BCI>
0

$$$$

  SciTegic03012415362D

 23 23  0  0  0  0            999 V2000
    2.5909   -6.0056    0.0000 C   0  0
    3.8912   -5.2578    0.0000 S   0  3
    3.8933   -3.7570    0.0000 C   0  0
    2.5951   -3.0039    0.0000 C   0  0
    2.5973   -1.5031    0.0000 C   0  0
    1.2990   -0.7500    0.0000 C   0  0
    1.2990    0.7500    0.0000 C   0  0
    0.0000    1.5000    0.0000 C   0  0
   -1.2990    0.7500    0.0000 C   0  0
   -1.2990   -0.7500    0.0000 C   0  0
    0.0000   -1.5000    0.0000 C   0  0
    5.1894   -6.0109    0.0000 C   0  0
    5.1873   -7.5117    0.0000 C   0  0
    6.4855   -8.2648    0.0000 C   0  0  3  0  0  0
    5.1851   -9.0125    0.0000 O   0  0
    6.4833   -9.7656    0.0000 P   0  0
    7.7808  -10.5183    0.0000 O   0  0
    5.1830  -10.5134    0.0000 O   0  5
    6.4805  -11.2656    0.0000 O   0  0
    7.7865   -7.5167    0.0000 P   0  0
    9.0847   -8.2681    0.0000 O   0  0
    9.0864   -6.7683    0.0000 O   0  0
    7.7886   -6.0167    0.0000 O   0  0
  1  2  1  0
  2  3  1  0
  3  4  1  0
  4  5  1  0
  5  6  1  0
  6  7  2  0
  7  8  1  0
  8  9  2  0
  9 10  1  0
 10 11  2  0
 11  6  1  0
  2 12  1  0
 12 13  1  0
 13 14  1  0
 14 15  1  4
 14 16  1  0
 16 17  2  0
 16 18  1  0
 16 19  1  0
 14 20  1  0
 20 21  2  0
 20 22  1  0
 20 23  1  0
M  CHG  2   2   1  18  -1
M  END
> <Smiles>
C[S+](CCCc1ccccc1)CCC(O)(P(=O)([O-])O)P(=O)(O)O

> <ID>
CHEMBL237203

> <standard_value>
63095.73

> <IC50_uM>
63.09573

> <Activity>
No

> <pIC50>
4.200000031

> <BCI>
0

$$$$

  SciTegic03012415362D

 16 16  0  0  0  0            999 V2000
    3.8912   -5.2570    0.0000 O   0  0
    3.8933   -3.7570    0.0000 P   0  0
    5.1937   -3.0093    0.0000 O   0  5
    5.1912   -4.5090    0.0000 O   0  0
    2.5951   -3.0039    0.0000 C   0  0  3  0  0  0
    2.5973   -1.5031    0.0000 C   0  0
    1.2990   -0.7500    0.0000 N   0  3
    1.2990    0.7500    0.0000 C   0  0
    0.0000    1.5000    0.0000 C   0  0
   -1.2990    0.7500    0.0000 C   0  0
   -1.2990   -0.7500    0.0000 C   0  0
    0.0000   -1.5000    0.0000 C   0  0
    1.2925   -3.7494    0.0000 P   0  0
   -0.0041   -2.9953    0.0000 O   0  0
   -0.0090   -4.4951    0.0000 O   0  0
    1.2873   -5.2494    0.0000 O   0  0
  1  2  2  0
  2  3  1  0
  2  4  1  0
  2  5  1  0
  5  6  1  4
  6  7  1  0
  7  8  2  0
  8  9  1  0
  9 10  2  0
 10 11  1  0
 11 12  2  0
 12  7  1  0
  5 13  1  0
 13 14  2  0
 13 15  1  0
 13 16  1  0
M  CHG  2   3  -1   7   1
M  END
> <Smiles>
O=P([O-])(O)C(C[n+]1ccccc1)P(=O)(O)O

> <ID>
CHEMBL384308

> <standard_value>
65100

> <IC50_uM>
65.1

> <Activity>
No

> <pIC50>
4.186419011

> <BCI>
0

$$$$

  SciTegic03012415362D

 24 25  0  0  0  0            999 V2000
    3.8919   -4.7570    0.0000 O   0  0
    3.8933   -3.7570    0.0000 P   0  0
    5.1937   -3.0093    0.0000 O   0  5
    5.1912   -4.5090    0.0000 O   0  0
    2.5951   -3.0039    0.0000 C   0  0  3  0  0  0
    1.2948   -3.7516    0.0000 O   0  0
    2.5973   -1.5031    0.0000 C   0  0
    1.2990   -0.7500    0.0000 N   0  3
    1.2990    0.7500    0.0000 C   0  0
    0.0000    1.5000    0.0000 C   0  0
   -1.2990    0.7500    0.0000 C   0  0
   -1.2990   -0.7500    0.0000 C   0  0
   -2.5972   -1.5031    0.0000 C   0  0
   -2.5951   -3.0039    0.0000 C   0  0
   -3.8915   -3.7585    0.0000 C   0  0
   -3.8863   -5.2585    0.0000 C   0  0
   -2.5847   -6.0040    0.0000 C   0  0
   -1.2883   -5.2495    0.0000 C   0  0
   -1.2935   -3.7495    0.0000 C   0  0
    0.0000   -1.5000    0.0000 C   0  0
    2.5903   -4.5339    0.0000 P   0  0
    1.2893   -5.2805    0.0000 O   0  0
    2.5862   -6.0339    0.0000 O   0  0
    3.4549   -5.0363    0.0000 O   0  0
  1  2  2  0
  2  3  1  0
  2  4  1  0
  2  5  1  0
  5  6  1  4
  5  7  1  0
  7  8  1  0
  8  9  2  0
  9 10  1  0
 10 11  2  0
 11 12  1  0
 12 13  1  0
 13 14  1  0
 14 15  2  0
 15 16  1  0
 16 17  2  0
 17 18  1  0
 18 19  2  0
 19 14  1  0
 12 20  2  0
 20  8  1  0
  5 21  1  0
 21 22  2  0
 21 23  1  0
 21 24  1  0
M  CHG  2   3  -1   8   1
M  END
> <Smiles>
O=P([O-])(O)C(O)(C[n+]1cccc(Cc2ccccc2)c1)P(=O)(O)O

> <ID>
CHEMBL363434

> <standard_value>
67000

> <IC50_uM>
67

> <Activity>
No

> <pIC50>
4.173925197

> <BCI>
0

$$$$

  SciTegic03012415362D

 22 24  0  0  0  0            999 V2000
   -0.2237   -5.5078    0.0000 C   0  0
   -0.6890   -4.0818    0.0000 C   0  0
    0.3114   -2.9665    0.0000 N   0  0
    1.8032   -3.1233    0.0000 C   0  0
    2.5532   -4.4223    0.0000 O   0  0
    2.4133   -1.7530    0.0000 C   0  0
    3.8794   -1.4442    0.0000 C   0  0
    4.3468   -0.0180    0.0000 C   0  0
    3.3456    1.0989    0.0000 O   0  0
    5.8154    0.2913    0.0000 N   0  0
    6.2828    1.7175    0.0000 C   0  0
    7.7502    2.0287    0.0000 C   0  0
    8.2144    3.4551    0.0000 C   0  0
    7.2112    4.5703    0.0000 C   0  0
    5.7439    4.2591    0.0000 C   0  0
    5.2796    2.8328    0.0000 C   0  0
    1.2990   -0.7500    0.0000 C   0  0
    1.2990    0.7500    0.0000 C   0  0
    0.0000    1.5000    0.0000 C   0  0
   -1.2990    0.7500    0.0000 C   0  0
   -1.2990   -0.7500    0.0000 C   0  0
    0.0000   -1.5000    0.0000 C   0  0
  1  2  1  0
  2  3  1  0
  3  4  1  0
  4  5  2  0
  4  6  1  0
  6  7  2  0
  7  8  1  0
  8  9  2  0
  8 10  1  0
 10 11  1  0
 11 12  2  0
 12 13  1  0
 13 14  2  0
 14 15  1  0
 15 16  2  0
 16 11  1  0
  6 17  1  0
 17 18  2  0
 18 19  1  0
 19 20  2  0
 20 21  1  0
 21 22  2  0
 22 17  1  0
 22  3  1  0
M  END
> <Smiles>
CCN1C(=O)/C(=C/C(=O)Nc2ccccc2)c2ccccc21

> <ID>
CHEMBL3422932

> <standard_value>
71800

> <IC50_uM>
71.8

> <Activity>
No

> <pIC50>
4.143875556

> <BCI>
0

$$$$

  SciTegic03012415362D

 17 17  0  0  0  0            999 V2000
    3.8912   -5.2570    0.0000 O   0  0
    3.8933   -3.7570    0.0000 P   0  0
    5.1937   -3.0093    0.0000 O   0  5
    5.1912   -4.5090    0.0000 O   0  0
    2.5951   -3.0039    0.0000 C   0  0  3  0  0  0
    2.5973   -1.5031    0.0000 C   0  0
    1.2990   -0.7500    0.0000 N   0  3
    1.2990    0.7500    0.0000 C   0  0
    0.0000    1.5000    0.0000 C   0  0
   -1.2990    0.7500    0.0000 C   0  0
   -1.2990   -0.7500    0.0000 C   0  0
   -2.5981   -1.5000    0.0000 Cl  0  0
    0.0000   -1.5000    0.0000 C   0  0
    1.2925   -3.7494    0.0000 P   0  0
   -0.0041   -2.9953    0.0000 O   0  0
   -0.0090   -4.4951    0.0000 O   0  0
    1.2873   -5.2494    0.0000 O   0  0
  1  2  2  0
  2  3  1  0
  2  4  1  0
  2  5  1  0
  5  6  1  4
  6  7  1  0
  7  8  2  0
  8  9  1  0
  9 10  2  0
 10 11  1  0
 11 12  1  0
 11 13  2  0
 13  7  1  0
  5 14  1  0
 14 15  2  0
 14 16  1  0
 14 17  1  0
M  CHG  2   3  -1   7   1
M  END
> <Smiles>
O=P([O-])(O)C(C[n+]1cccc(Cl)c1)P(=O)(O)O

> <ID>
CHEMBL386386

> <standard_value>
72700

> <IC50_uM>
72.7

> <Activity>
No

> <pIC50>
4.138465589

> <BCI>
0

$$$$

  SciTegic03012415362D

 20 22  0  0  0  0            999 V2000
    7.7996   -1.4883    0.0000 C   0  0
    6.4990   -0.7409    0.0000 C   0  0
    5.2003   -1.4932    0.0000 C   0  0
    3.8990   -0.7455    0.0000 C   0  0
    2.6003   -1.4977    0.0000 N   0  0
    1.2990   -0.7500    0.0000 C   0  0
    1.2990    0.7500    0.0000 N   0  0
    0.0000    1.5000    0.0000 N   0  0
   -1.2990    0.7500    0.0000 C   0  0
   -2.5981    1.5000    0.0000 Cl  0  0
   -1.2990   -0.7500    0.0000 C   0  0
   -2.5981   -1.5000    0.0000 C   0  0
   -2.5981   -3.0000    0.0000 C   0  0
   -3.8971   -3.7500    0.0000 C   0  0
   -3.8971   -5.2500    0.0000 C   0  0
   -2.5980   -6.0000    0.0000 C   0  0
   -1.2990   -5.2500    0.0000 C   0  0
   -1.2990   -3.7500    0.0000 C   0  0
    0.0000   -3.0000    0.0000 C   0  0
    0.0000   -1.5000    0.0000 C   0  0
  1  2  1  0
  2  3  1  0
  3  4  1  0
  4  5  1  0
  5  6  1  0
  6  7  2  0
  7  8  1  0
  8  9  2  0
  9 10  1  0
  9 11  1  0
 11 12  2  0
 12 13  1  0
 13 14  2  0
 14 15  1  0
 15 16  2  0
 16 17  1  0
 17 18  2  0
 18 13  1  0
 18 19  1  0
 19 20  2  0
 20  6  1  0
 20 11  1  0
M  END
> <Smiles>
CCCCNc1nnc(Cl)c2cc3ccccc3cc12.Cl

> <ID>
CHEMBL1171799

> <standard_value>
88000

> <IC50_uM>
88

> <Activity>
No

> <pIC50>
4.055517328

> <BCI>
0

> <RemovedSalts>
HCl

$$$$

  SciTegic03012415362D

 23 25  0  0  1  0            999 V2000
    2.5425   -6.3740    0.0000 C   0  5
    1.1024   -5.9542    0.0000 N   0  3
   -0.3384   -5.5341    0.0000 C   0  0  2  0  0  0
   -0.6928   -4.0817    0.0000 C   0  0  2  0  0  0
    0.3114   -2.9665    0.0000 C   0  0
   -0.0002   -1.4992    0.0000 C   0  0
    1.2990   -0.7494    0.0000 N   0  0
    2.4128   -1.7530    0.0000 C   0  0
    3.9046   -1.5964    0.0000 C   0  0
    4.7861   -2.8101    0.0000 C   0  0
    4.1757   -4.1803    0.0000 C   0  0
    2.6839   -4.3369    0.0000 C   0  0
    1.8024   -3.1232    0.0000 C   0  0
   -2.1327   -3.6551    0.0000 C   0  0  1  0  0  0
   -2.4887   -2.1971    0.0000 C   0  0
   -3.9284   -1.7758    0.0000 C   0  0
   -1.7658   -1.5062    0.0000 C   0  0
   -3.2175   -4.6910    0.0000 C   0  0
   -2.8628   -6.1485    0.0000 C   0  0
   -1.4233   -6.5700    0.0000 C   0  0  1  0  0  0
   -2.5332   -7.5790    0.0000 C   0  0
    0.0073   -6.9509    0.0000 C   0  0
    0.2917   -7.9096    0.0000 C   0  0
  1  2  3  0
  3  2  1  1
  3  4  1  0
  4  5  1  1
  5  6  2  0
  6  7  1  0
  7  8  1  0
  8  9  2  0
  9 10  1  0
 10 11  2  0
 11 12  1  0
 12 13  2  0
 13  5  1  0
 13  8  1  0
  4 14  1  0
 14 15  1  6
 15 16  2  0
 15 17  1  0
 14 18  1  0
 18 19  1  0
 19 20  1  0
 20  3  1  0
 20 21  1  6
 20 22  1  0
 22 23  2  0
M  CHG  2   1  -1   2   1
M  END
> <Smiles>
[C-]#[N+][C@@H]1[C@H](c2c[nH]c3ccccc23)[C@@H](C(=C)C)CC[C@]1(C)C=C

> <ID>
CHEMBL2071365

> <standard_value>
88600

> <IC50_uM>
88.6

> <Activity>
No

> <pIC50>
4.052566278

> <BCI>
0

$$$$

  SciTegic03012415362D

 17 17  0  0  0  0            999 V2000
    3.8912   -5.2570    0.0000 O   0  0
    3.8933   -3.7570    0.0000 P   0  0
    5.1937   -3.0093    0.0000 O   0  5
    5.1912   -4.5090    0.0000 O   0  0
    2.5951   -3.0039    0.0000 C   0  0  3  0  0  0
    2.5973   -1.5031    0.0000 C   0  0
    1.2990   -0.7500    0.0000 N   0  3
    1.2990    0.7500    0.0000 C   0  0
    0.0000    1.5000    0.0000 C   0  0
   -1.2990    0.7500    0.0000 C   0  0
   -1.2990   -0.7500    0.0000 C   0  0
   -2.5981   -1.5000    0.0000 I   0  0
    0.0000   -1.5000    0.0000 C   0  0
    1.2925   -3.7494    0.0000 P   0  0
   -0.0041   -2.9953    0.0000 O   0  0
   -0.0090   -4.4951    0.0000 O   0  0
    1.2873   -5.2494    0.0000 O   0  0
  1  2  2  0
  2  3  1  0
  2  4  1  0
  2  5  1  0
  5  6  1  4
  6  7  1  0
  7  8  2  0
  8  9  1  0
  9 10  2  0
 10 11  1  0
 11 12  1  0
 11 13  2  0
 13  7  1  0
  5 14  1  0
 14 15  2  0
 14 16  1  0
 14 17  1  0
M  CHG  2   3  -1   7   1
M  END
> <Smiles>
O=P([O-])(O)C(C[n+]1cccc(I)c1)P(=O)(O)O

> <ID>
CHEMBL378940

> <standard_value>
89300

> <IC50_uM>
89.3

> <Activity>
No

> <pIC50>
4.049148541

> <BCI>
0

$$$$

  SciTegic03012415362D

 16 16  0  0  0  0            999 V2000
    1.2948   -3.7516    0.0000 N   0  0
    2.5951   -3.0039    0.0000 P   0  0
    3.8926   -3.7566    0.0000 O   0  0
    2.5923   -4.5039    0.0000 O   0  0
    2.5973   -1.5031    0.0000 C   0  0
    1.2990   -0.7500    0.0000 C   0  0
    1.2990    0.7500    0.0000 C   0  0
    0.0000    1.5000    0.0000 C   0  0
   -1.2990    0.7500    0.0000 C   0  0
   -2.5981    1.5000    0.0000 Cl  0  0
   -1.2990   -0.7500    0.0000 C   0  0
    0.0000   -1.5000    0.0000 C   0  0
    3.8968   -0.7523    0.0000 P   0  0
    5.1959   -0.0025    0.0000 N   0  0
    3.8973    0.7477    0.0000 O   0  0
    5.1958   -1.5023    0.0000 O   0  0
  1  2  1  0
  2  3  2  0
  2  4  1  0
  2  5  1  0
  5  6  1  0
  6  7  2  0
  7  8  1  0
  8  9  2  0
  9 10  1  0
  9 11  1  0
 11 12  2  0
 12  6  1  0
  5 13  1  0
 13 14  1  0
 13 15  2  0
 13 16  1  0
M  END
> <Smiles>
NP(=O)(O)C(c1ccc(Cl)cc1)P(N)(=O)O

> <ID>
CHEMBL499128

> <standard_value>
90400

> <IC50_uM>
90.4

> <Activity>
No

> <pIC50>
4.04383157

> <BCI>
0

$$$$

  SciTegic03012415362D

 24 27  0  0  1  0            999 V2000
    3.8978   -2.2504    0.0000 C   0  5
    2.5988   -1.5004    0.0000 N   0  3
    1.2990   -0.7500    0.0000 C   0  0
    1.2990    0.7500    0.0000 C   0  0
    2.5981    1.5000    0.0000 C   0  0
    4.1461    1.2403    0.0000 C   0  0
    4.8961    2.5393    0.0000 N   0  0
    3.8971    3.7500    0.0000 C   0  0
    3.8971    5.2500    0.0000 C   0  0
    2.5980    6.0000    0.0000 C   0  0
    1.2990    5.2500    0.0000 C   0  0
    1.2990    3.7500    0.0000 C   0  0
    2.5981    3.0000    0.0000 C   0  0
    0.0000    3.0000    0.0000 C   0  0
    0.0354    4.4996    0.0000 C   0  0
   -1.2811    2.2197    0.0000 C   0  0
    0.0000    1.5000    0.0000 C   0  0  1  0  0  0
   -1.2990    0.7500    0.0000 C   0  0
   -1.2990   -0.7500    0.0000 C   0  0  1  0  0  0
   -2.5981   -1.5000    0.0000 Cl  0  0
    0.0000   -1.5000    0.0000 C   0  0  1  0  0  0
    1.3170   -2.2179    0.0000 C   0  0
   -1.2999   -2.2084    0.0000 C   0  0
   -1.3744   -3.7066    0.0000 C   0  0
  1  2  3  0
  2  3  1  0
  3  4  2  0
  4  5  1  0
  5  6  2  0
  6  7  1  0
  7  8  1  0
  8  9  2  0
  9 10  1  0
 10 11  2  0
 11 12  1  0
 12 13  2  0
 13  5  1  0
 13  8  1  0
 12 14  1  0
 14 15  1  0
 14 16  1  0
 14 17  1  0
 17  4  1  0
 17 18  1  6
 18 19  1  0
 19 20  1  6
 19 21  1  0
 21  3  1  0
 21 22  1  6
 21 23  1  0
 23 24  2  0
M  CHG  2   1  -1   2   1
M  END
> <Smiles>
[C-]#[N+]C1=C2c3c[nH]c4cccc(c34)C(C)(C)[C@H]2C[C@@H](Cl)[C@]1(C)C=C

> <ID>
CHEMBL2071357

> <standard_value>
93100

> <IC50_uM>
93.1

> <Activity>
No

> <pIC50>
4.031050319

> <BCI>
0

$$$$

  SciTegic03012415362D

 23 24  0  0  0  0            999 V2000
    5.1887   -6.0105    0.0000 O   0  0
    3.8912   -5.2578    0.0000 P   0  0
    2.5909   -6.0056    0.0000 O   0  0
    3.8883   -6.7578    0.0000 O   0  0
    3.8933   -3.7570    0.0000 C   0  0
    2.5951   -3.0039    0.0000 C   0  0
    2.5973   -1.5031    0.0000 N   0  0
    1.2990   -0.7500    0.0000 C   0  0
    1.2990    0.7500    0.0000 C   0  0
    0.0000    1.5000    0.0000 C   0  0
   -1.2990    0.7500    0.0000 C   0  0
   -2.5987    1.5004    0.0000 C   0  0
   -2.6012    3.0004    0.0000 C   0  0
   -3.9015    3.7484    0.0000 C   0  0
   -5.1993    2.9963    0.0000 C   0  0
   -5.1969    1.4963    0.0000 C   0  0
   -3.8967    0.7484    0.0000 C   0  0
   -1.2990   -0.7500    0.0000 C   0  0
    0.0000   -1.5000    0.0000 C   0  0
    5.1929   -3.0062    0.0000 P   0  0
    5.1933   -1.5062    0.0000 O   0  0
    6.4920   -2.2564    0.0000 O   0  0
    6.4919   -3.7562    0.0000 O   0  0
  1  2  2  0
  2  3  1  0
  2  4  1  0
  2  5  1  0
  5  6  1  0
  6  7  1  0
  7  8  1  0
  8  9  2  0
  9 10  1  0
 10 11  2  0
 11 12  1  0
 12 13  2  0
 13 14  1  0
 14 15  2  0
 15 16  1  0
 16 17  2  0
 17 12  1  0
 11 18  1  0
 18 19  2  0
 19  8  1  0
  5 20  1  0
 20 21  2  0
 20 22  1  0
 20 23  1  0
M  END
> <Smiles>
O=P(O)(O)C(CNc1ccc(-c2ccccc2)cc1)P(=O)(O)O

> <ID>
CHEMBL382291

> <standard_value>
95000

> <IC50_uM>
95

> <Activity>
No

> <pIC50>
4.022276395

> <BCI>
0

$$$$

  SciTegic03012415362D

 32 37  0  0  1  0            999 V2000
    7.3030   -6.5091    0.0000 C   0  0
    5.8033   -6.4790    0.0000 C   0  0  2  0  0  0
    5.0189   -7.7576    0.0000 O   0  0
    4.3640   -6.0568    0.0000 C   0  0
    4.8099   -4.6672    0.0000 C   0  0  1  0  0  0
    4.2013   -3.2954    0.0000 C   0  0
    2.7345   -2.9814    0.0000 N   0  0
    2.5987   -1.5004    0.0000 C   0  0
    1.2990   -0.7500    0.0000 C   0  0
    1.2990    0.7500    0.0000 C   0  0
    0.0000    1.5000    0.0000 C   0  0
   -1.2990    0.7500    0.0000 C   0  0
   -2.5981    1.5000    0.0000 C   0  0
   -3.8971    0.7500    0.0000 C   0  0
   -3.8971   -0.7500    0.0000 C   0  0
   -5.1968   -1.5004    0.0000 C   0  0
   -6.4971   -0.7525    0.0000 C   0  0
   -7.7950   -1.5046    0.0000 C   0  0
   -7.7926   -3.0046    0.0000 C   0  0
   -6.4923   -3.7525    0.0000 C   0  0
   -5.1945   -3.0005    0.0000 C   0  0
   -2.5981   -1.5000    0.0000 N   0  0
   -1.2990   -0.7500    0.0000 C   0  0
    0.0000   -1.5000    0.0000 C   0  0
    3.9504   -0.8818    0.0000 C   0  0
    4.4160    0.5441    0.0000 C   0  0
    3.4139    1.6603    0.0000 N   0  0
    5.8837    0.8539    0.0000 N   0  0
    6.8858   -0.2623    0.0000 C   0  0
    6.4202   -1.6882    0.0000 C   0  0
    4.9525   -1.9980    0.0000 N   0  0
    6.2255   -5.0396    0.0000 C   0  0
  2  1  1  6
  2  3  1  0
  2  4  1  0
  4  5  1  0
  5  6  1  1
  6  7  2  0
  7  8  1  0
  8  9  1  0
  9 10  2  0
 10 11  1  0
 11 12  2  0
 12 13  1  0
 13 14  2  0
 14 15  1  0
 15 16  1  0
 16 17  2  0
 17 18  1  0
 18 19  2  0
 19 20  1  0
 20 21  2  0
 21 16  1  0
 15 22  2  0
 22 23  1  0
 23 12  1  0
 23 24  2  0
 24  9  1  0
  8 25  2  0
 25 26  1  0
 26 27  1  0
 26 28  2  0
 28 29  1  0
 29 30  2  0
 30 31  1  0
 31 25  1  0
 31  6  1  0
  5 32  1  0
 32  2  1  0
M  END
> <Smiles>
C[C@]1(O)C[C@@H](c2nc(-c3ccc4ccc(-c5ccccc5)nc4c3)c3c(N)nccn32)C1

> <ID>
CHEMBL1091644

> <standard_value>
95512.3

> <IC50_uM>
95.5123

> <Activity>
No

> <pIC50>
4.019940697

> <BCI>
0

$$$$

  SciTegic03012415362D

 16 15  0  0  0  0            999 V2000
    0.0007    0.0004    0.0000 C   0  0
    1.3000    0.7500    0.0000 C   0  0
    2.6000    0.0000    0.0000 C   0  0
    3.9000    0.7500    0.0000 S   0  3
    3.9000    2.2500    0.0000 C   0  0
    5.2000    0.0000    0.0000 C   0  0
    6.5000    0.7500    0.0000 C   0  0  3  0  0  0
    6.5000   -0.7500    0.0000 O   0  0
    7.7999    0.0000    0.0000 P   0  0
    9.0992    0.7496    0.0000 O   0  0
    7.7999   -1.5000    0.0000 O   0  5
    9.0989   -0.7502    0.0000 O   0  0
    6.5000    2.2507    0.0000 P   0  0
    7.7985    3.0016    0.0000 O   0  0
    6.4992    3.7507    0.0000 O   0  0
    5.2007    3.0003    0.0000 O   0  0
  1  2  1  0
  2  3  1  0
  3  4  1  0
  4  5  1  0
  4  6  1  0
  6  7  1  0
  7  8  1  4
  7  9  1  0
  9 10  2  0
  9 11  1  0
  9 12  1  0
  7 13  1  0
 13 14  2  0
 13 15  1  0
 13 16  1  0
M  CHG  2   4   1  11  -1
M  END
> <Smiles>
CCC[S+](C)CC(O)(P(=O)([O-])O)P(=O)(O)O

> <ID>
CHEMBL235052

> <standard_value>
96100

> <IC50_uM>
96.1

> <Activity>
No

> <pIC50>
4.017276612

> <BCI>
0

$$$$

  SciTegic03012415362D

 15 14  0  0  0  0            999 V2000
    0.0007    0.0004    0.0000 C   0  0
    1.3000    0.7500    0.0000 S   0  3
    1.3000    2.2500    0.0000 C   0  0
    2.6000    0.0000    0.0000 C   0  0
    3.9000    0.7500    0.0000 C   0  0
    5.2000    0.0000    0.0000 C   0  0  3  0  0  0
    5.2000    1.5000    0.0000 O   0  0
    6.5000    0.7500    0.0000 P   0  0
    7.7992    0.0004    0.0000 O   0  0
    6.5000    2.2500    0.0000 O   0  5
    7.7989    1.5002    0.0000 O   0  0
    5.2000   -1.5007    0.0000 P   0  0
    3.9014   -2.2516    0.0000 O   0  0
    5.2007   -3.0007    0.0000 O   0  0
    6.4992   -2.2503    0.0000 O   0  0
  1  2  1  0
  2  3  1  0
  2  4  1  0
  4  5  1  0
  5  6  1  0
  6  7  1  4
  6  8  1  0
  8  9  2  0
  8 10  1  0
  8 11  1  0
  6 12  1  0
 12 13  2  0
 12 14  1  0
 12 15  1  0
M  CHG  2   2   1  10  -1
M  END
> <Smiles>
C[S+](C)CCC(O)(P(=O)([O-])O)P(=O)(O)O

> <ID>
CHEMBL392675

> <standard_value>
100000

> <IC50_uM>
100

> <Activity>
No

> <pIC50>
4

> <BCI>
0

$$$$
